 
data_Diffuse_300K_Full_Sphere_Scan
 
_audit_creation_method            'SHELXL-2018/1'
_shelx_SHELXL_version_number      '2018/1'
_chemical_name_systematic         ?
_chemical_name_common             ?
_chemical_melting_point           ?
_chemical_formula_moiety          ?
_chemical_formula_sum
 'C I3 N Pb' 
_chemical_formula_weight          613.91

loop_
 _atom_type_symbol
 _atom_type_description
 _atom_type_scat_dispersion_real
 _atom_type_scat_dispersion_imag
 _atom_type_scat_source
 'C'  'C'   0.0033   0.0016
 'International Tables Vol C Tables 4.2.6.8 and 6.1.1.4'
 'N'  'N'   0.0061   0.0033
 'International Tables Vol C Tables 4.2.6.8 and 6.1.1.4'
 'I'  'I'  -0.5256   1.6587
 'International Tables Vol C Tables 4.2.6.8 and 6.1.1.4'
 'Pb'  'Pb'  -2.4885   9.3483
 'International Tables Vol C Tables 4.2.6.8 and 6.1.1.4'
 
_space_group_crystal_system       tetragonal
_space_group_IT_number            87
_space_group_name_H-M_alt         'I 4/m'
_space_group_name_Hall            '-I 4'
 
_shelx_space_group_comment
;
The symmetry employed for this shelxl refinement is uniquely defined
by the following loop, which should always be used as a source of
symmetry information in preference to the above space-group names.
They are only intended as comments.
;
 
loop_
 _space_group_symop_operation_xyz
 'x, y, z'
 '-x, -y, z'
 '-y, x, z'
 'y, -x, z'
 'x+1/2, y+1/2, z+1/2'
 '-x+1/2, -y+1/2, z+1/2'
 '-y+1/2, x+1/2, z+1/2'
 'y+1/2, -x+1/2, z+1/2'
 '-x, -y, -z'
 'x, y, -z'
 'y, -x, -z'
 '-y, x, -z'
 '-x+1/2, -y+1/2, -z+1/2'
 'x+1/2, y+1/2, -z+1/2'
 'y+1/2, -x+1/2, -z+1/2'
 '-y+1/2, x+1/2, -z+1/2'
 
_cell_length_a                    8.8827(3)
_cell_length_b                    8.8827(3)
_cell_length_c                    12.6188(9)
_cell_angle_alpha                 90
_cell_angle_beta                  90
_cell_angle_gamma                 90
_cell_volume                      995.66(10)
_cell_formula_units_Z             4
_cell_measurement_temperature     293(2)
_cell_measurement_reflns_used     ?
_cell_measurement_theta_min       ?
_cell_measurement_theta_max       ?
 
_exptl_crystal_description        ?
_exptl_crystal_colour             ?
_exptl_crystal_density_meas       ?
_exptl_crystal_density_method     ?
_exptl_crystal_density_diffrn     4.095          
_exptl_crystal_F_000              1016
_exptl_transmission_factor_min    ?
_exptl_transmission_factor_max    ?
_exptl_crystal_size_max           ?
_exptl_crystal_size_mid           ?
_exptl_crystal_size_min           ?
_exptl_absorpt_coefficient_mu     22.925
_shelx_estimated_absorpt_T_min    ?
_shelx_estimated_absorpt_T_max    ?
_exptl_absorpt_correction_type    ?
_exptl_absorpt_correction_T_min   ?
_exptl_absorpt_correction_T_max   ?
_exptl_absorpt_process_details    ?
_exptl_absorpt_special_details    ?
_diffrn_ambient_temperature       293(2)
_diffrn_radiation_wavelength      0.67511
_diffrn_radiation_type            ?
_diffrn_source                    ?
_diffrn_measurement_device_type   ?
_diffrn_measurement_method        ?
_diffrn_detector_area_resol_mean  ?
_diffrn_reflns_number             4810
_diffrn_reflns_av_unetI/netI      0.0698
_diffrn_reflns_av_R_equivalents   0.1306
_diffrn_reflns_limit_h_min        -12
_diffrn_reflns_limit_h_max        12
_diffrn_reflns_limit_k_min        -14
_diffrn_reflns_limit_k_max        14
_diffrn_reflns_limit_l_min        -18
_diffrn_reflns_limit_l_max        18
_diffrn_reflns_theta_min          2.664
_diffrn_reflns_theta_max          32.403
_diffrn_reflns_theta_full         23.895
_diffrn_measured_fraction_theta_max   0.926
_diffrn_measured_fraction_theta_full  0.992
_diffrn_reflns_Laue_measured_fraction_max    0.926
_diffrn_reflns_Laue_measured_fraction_full   0.992
_diffrn_reflns_point_group_measured_fraction_max   0.926
_diffrn_reflns_point_group_measured_fraction_full  0.992
_reflns_number_total              1011
_reflns_number_gt                 885
_reflns_threshold_expression      'I > 2\s(I)'
_reflns_Friedel_coverage          0.000
_reflns_Friedel_fraction_max      .
_reflns_Friedel_fraction_full     .
 
_reflns_special_details
;
 Reflections were merged by SHELXL according to the crystal
 class for the calculation of statistics and refinement.
 
 _reflns_Friedel_fraction is defined as the number of unique
 Friedel pairs measured divided by the number that would be
 possible theoretically, ignoring centric projections and
 systematic absences.
;
 
_computing_data_collection        ?
_computing_cell_refinement        ?
_computing_data_reduction         ?
_computing_structure_solution     ?
_computing_structure_refinement 'SHELXL-2018/1 (Sheldrick, 2018)'
_computing_molecular_graphics     ?
_computing_publication_material   ?
_refine_special_details           ?
_refine_ls_structure_factor_coef  Fsqd
_refine_ls_matrix_type            full
_refine_ls_weighting_scheme       calc
_refine_ls_weighting_details
'w=1/[\s^2^(Fo^2^)+(0.1543P)^2^+102.4071P] where P=(Fo^2^+2Fc^2^)/3'
_atom_sites_solution_primary      ?
_atom_sites_solution_secondary    ?
_atom_sites_solution_hydrogens    .
_refine_ls_hydrogen_treatment     undef
_refine_ls_extinction_method      'SHELXL-2018/1 (Sheldrick 2018)'
_refine_ls_extinction_coef        0.0047(13)
_refine_ls_extinction_expression
 'Fc^*^=kFc[1+0.001xFc^2^\l^3^/sin(2\q)]^-1/4^'
_refine_ls_number_reflns          1011
_refine_ls_number_parameters      35
_refine_ls_number_restraints      0
_refine_ls_R_factor_all           0.1229
_refine_ls_R_factor_gt            0.1205
_refine_ls_wR_factor_ref          0.3684
_refine_ls_wR_factor_gt           0.3676
_refine_ls_goodness_of_fit_ref    1.158
_refine_ls_restrained_S_all       1.158
_refine_ls_shift/su_max           0.286
_refine_ls_shift/su_mean          0.107
 
loop_
 _atom_site_label
 _atom_site_type_symbol
 _atom_site_fract_x
 _atom_site_fract_y
 _atom_site_fract_z
 _atom_site_U_iso_or_equiv
 _atom_site_adp_type
 _atom_site_occupancy
 _atom_site_site_symmetry_order  
 _atom_site_calc_flag
 _atom_site_refinement_flags_posn
 _atom_site_refinement_flags_adp
 _atom_site_refinement_flags_occupancy
 _atom_site_disorder_assembly
 _atom_site_disorder_group
Pb1 Pb 0.000000 0.000000 0.000000 0.0470(8) Uani 1 8 d S T P . .
Pb2 Pb -0.500000 -0.500000 0.000000 0.0470(8) Uani 1 8 d S T P . .
ZI3 I -0.209(5) -0.295(5) 0.000000 0.086(8) Uani 0.45(16) 2 d S T . . .
I1 I 0.000000 0.000000 0.2528(4) 0.134(4) Uani 1 4 d S T P . .
I2A I -0.240(6) -0.257(6) -0.020(6) 0.123(14) Uani 0.31(8) 1 d . . . . .
N1 N 0.073(8) 0.474(7) 0.218(3) 0.071(17) Uani 0.25 1 d . . P . .
C1 C 0.073(8) 0.474(7) 0.218(3) 0.071(17) Uani 0.25 1 d . . P . .
 
loop_
 _atom_site_aniso_label
 _atom_site_aniso_U_11
 _atom_site_aniso_U_22
 _atom_site_aniso_U_33
 _atom_site_aniso_U_23
 _atom_site_aniso_U_13
 _atom_site_aniso_U_12
Pb1 0.0402(8) 0.0402(8) 0.0605(14) 0.000 0.000 0.000
Pb2 0.0403(8) 0.0403(8) 0.0603(14) 0.000 0.000 0.000
ZI3 0.069(9) 0.059(10) 0.129(13) 0.000 0.000 -0.038(7)
I1 0.171(6) 0.171(6) 0.059(3) 0.000 0.000 0.000
I2A 0.096(13) 0.076(14) 0.20(3) -0.030(14) 0.068(14) -0.042(12)
N1 0.10(4) 0.07(3) 0.036(15) 0.03(2) -0.01(2) -0.03(3)
C1 0.10(4) 0.07(3) 0.036(15) 0.03(2) -0.01(2) -0.03(3)
 
_geom_special_details
;
 All esds (except the esd in the dihedral angle between two l.s. planes)
 are estimated using the full covariance matrix.  The cell esds are taken
 into account individually in the estimation of esds in distances, angles
 and torsion angles; correlations between esds in cell parameters are only
 used when they are defined by crystal symmetry.  An approximate (isotropic)
 treatment of cell esds is used for estimating esds involving l.s. planes.
;
 
loop_
 _geom_bond_atom_site_label_1
 _geom_bond_atom_site_label_2
 _geom_bond_distance
 _geom_bond_site_symmetry_2
 _geom_bond_publ_flag
Pb1 I2A 3.131(19) . ?
Pb1 I2A 3.131(19) 9 ?
Pb1 I2A 3.131(19) 10 ?
Pb1 I2A 3.131(19) 2 ?
Pb1 I2A 3.131(19) 12 ?
Pb1 I2A 3.131(19) 4 ?
Pb1 I2A 3.131(19) 11 ?
Pb1 I2A 3.131(19) 3 ?
Pb1 I1 3.190(5) 9 ?
Pb1 I1 3.190(5) . ?
Pb1 ZI3 3.21(2) . ?
Pb1 ZI3 3.21(2) 9 ?
Pb2 I1 3.119(5) 13_445 ?
Pb2 I1 3.119(5) 5_444 ?
Pb2 I2A 3.17(2) 10 ?
Pb2 I2A 3.17(2) 2_445 ?
Pb2 I2A 3.17(2) 9_445 ?
Pb2 I2A 3.17(2) 12_455 ?
Pb2 I2A 3.17(2) 4_545 ?
Pb2 I2A 3.17(2) 11_545 ?
Pb2 I2A 3.17(2) 3_455 ?
Pb2 I2A 3.17(2) . ?
Pb2 ZI3 3.16(2) 9_445 ?
Pb2 ZI3 3.16(2) 3_455 ?
ZI3 I2A 0.50(6) 10 ?
I2A I2A 0.50(14) 10 ?
 
loop_
 _geom_angle_atom_site_label_1
 _geom_angle_atom_site_label_2
 _geom_angle_atom_site_label_3
 _geom_angle
 _geom_angle_site_symmetry_1
 _geom_angle_site_symmetry_3
 _geom_angle_publ_flag
I2A Pb1 I2A 180.0 . 9 ?
I2A Pb1 I2A 9(3) . 10 ?
I2A Pb1 I2A 171(3) 9 10 ?
I2A Pb1 I2A 171(3) . 2 ?
I2A Pb1 I2A 9(3) 9 2 ?
I2A Pb1 I2A 180(3) 10 2 ?
I2A Pb1 I2A 90.4(2) . 12 ?
I2A Pb1 I2A 89.6(2) 9 12 ?
I2A Pb1 I2A 89.6(2) 10 12 ?
I2A Pb1 I2A 90.4(2) 2 12 ?
I2A Pb1 I2A 89.6(2) . 4 ?
I2A Pb1 I2A 90.4(2) 9 4 ?
I2A Pb1 I2A 90.4(2) 10 4 ?
I2A Pb1 I2A 89.6(2) 2 4 ?
I2A Pb1 I2A 180.0(7) 12 4 ?
I2A Pb1 I2A 90.4(2) . 11 ?
I2A Pb1 I2A 89.6(2) 9 11 ?
I2A Pb1 I2A 89.6(2) 10 11 ?
I2A Pb1 I2A 90.4(2) 2 11 ?
I2A Pb1 I2A 171(3) 12 11 ?
I2A Pb1 I2A 9(3) 4 11 ?
I2A Pb1 I2A 89.6(2) . 3 ?
I2A Pb1 I2A 90.4(2) 9 3 ?
I2A Pb1 I2A 90.4(2) 10 3 ?
I2A Pb1 I2A 89.6(2) 2 3 ?
I2A Pb1 I2A 9(3) 12 3 ?
I2A Pb1 I2A 171(3) 4 3 ?
I2A Pb1 I2A 180.0(14) 11 3 ?
I2A Pb1 I1 85.4(13) . 9 ?
I2A Pb1 I1 94.6(13) 9 9 ?
I2A Pb1 I1 94.6(13) 10 9 ?
I2A Pb1 I1 85.4(13) 2 9 ?
I2A Pb1 I1 94.6(13) 12 9 ?
I2A Pb1 I1 85.4(13) 4 9 ?
I2A Pb1 I1 94.6(13) 11 9 ?
I2A Pb1 I1 85.4(13) 3 9 ?
I2A Pb1 I1 94.6(13) . . ?
I2A Pb1 I1 85.4(13) 9 . ?
I2A Pb1 I1 85.4(13) 10 . ?
I2A Pb1 I1 94.6(13) 2 . ?
I2A Pb1 I1 85.4(13) 12 . ?
I2A Pb1 I1 94.6(13) 4 . ?
I2A Pb1 I1 85.4(13) 11 . ?
I2A Pb1 I1 94.6(13) 3 . ?
I1 Pb1 I1 180.0 9 . ?
I2A Pb1 ZI3 8.9(12) . . ?
I2A Pb1 ZI3 171.1(12) 9 . ?
I2A Pb1 ZI3 8.9(12) 10 . ?
I2A Pb1 ZI3 171.1(12) 2 . ?
I2A Pb1 ZI3 82.4(9) 12 . ?
I2A Pb1 ZI3 97.6(9) 4 . ?
I2A Pb1 ZI3 97.6(9) 11 . ?
I2A Pb1 ZI3 82.4(9) 3 . ?
I1 Pb1 ZI3 90.0 9 . ?
I1 Pb1 ZI3 90.0 . . ?
I2A Pb1 ZI3 171.1(12) . 9 ?
I2A Pb1 ZI3 8.9(12) 9 9 ?
I2A Pb1 ZI3 171.1(12) 10 9 ?
I2A Pb1 ZI3 8.9(12) 2 9 ?
I2A Pb1 ZI3 97.6(9) 12 9 ?
I2A Pb1 ZI3 82.4(9) 4 9 ?
I2A Pb1 ZI3 82.4(9) 11 9 ?
I2A Pb1 ZI3 97.6(9) 3 9 ?
I1 Pb1 ZI3 90.0 9 9 ?
I1 Pb1 ZI3 90.0 . 9 ?
ZI3 Pb1 ZI3 180.0 . 9 ?
I1 Pb2 I1 180.0 13_445 5_444 ?
I1 Pb2 I2A 85.5(13) 13_445 10 ?
I1 Pb2 I2A 94.5(13) 5_444 10 ?
I1 Pb2 I2A 94.5(13) 13_445 2_445 ?
I1 Pb2 I2A 85.5(13) 5_444 2_445 ?
I2A Pb2 I2A 180.0 10 2_445 ?
I1 Pb2 I2A 85.5(13) 13_445 9_445 ?
I1 Pb2 I2A 94.5(13) 5_444 9_445 ?
I2A Pb2 I2A 171(3) 10 9_445 ?
I2A Pb2 I2A 9(3) 2_445 9_445 ?
I1 Pb2 I2A 85.5(13) 13_445 12_455 ?
I1 Pb2 I2A 94.5(13) 5_444 12_455 ?
I2A Pb2 I2A 89.6(2) 10 12_455 ?
I2A Pb2 I2A 90.4(2) 2_445 12_455 ?
I2A Pb2 I2A 89.6(2) 9_445 12_455 ?
I1 Pb2 I2A 94.5(13) 13_445 4_545 ?
I1 Pb2 I2A 85.5(13) 5_444 4_545 ?
I2A Pb2 I2A 90.4(2) 10 4_545 ?
I2A Pb2 I2A 89.6(2) 2_445 4_545 ?
I2A Pb2 I2A 90.4(2) 9_445 4_545 ?
I2A Pb2 I2A 180.0(15) 12_455 4_545 ?
I1 Pb2 I2A 85.5(13) 13_445 11_545 ?
I1 Pb2 I2A 94.5(13) 5_444 11_545 ?
I2A Pb2 I2A 89.6(2) 10 11_545 ?
I2A Pb2 I2A 90.4(2) 2_445 11_545 ?
I2A Pb2 I2A 89.6(2) 9_445 11_545 ?
I2A Pb2 I2A 171(3) 12_455 11_545 ?
I2A Pb2 I2A 9(3) 4_545 11_545 ?
I1 Pb2 I2A 94.5(13) 13_445 3_455 ?
I1 Pb2 I2A 85.5(13) 5_444 3_455 ?
I2A Pb2 I2A 90.4(2) 10 3_455 ?
I2A Pb2 I2A 89.6(2) 2_445 3_455 ?
I2A Pb2 I2A 90.4(2) 9_445 3_455 ?
I2A Pb2 I2A 9(3) 12_455 3_455 ?
I2A Pb2 I2A 171(3) 4_545 3_455 ?
I2A Pb2 I2A 180.0 11_545 3_455 ?
I1 Pb2 I2A 94.5(13) 13_445 . ?
I1 Pb2 I2A 85.5(13) 5_444 . ?
I2A Pb2 I2A 9(3) 10 . ?
I2A Pb2 I2A 171(3) 2_445 . ?
I2A Pb2 I2A 180.0(13) 9_445 . ?
I2A Pb2 I2A 90.4(2) 12_455 . ?
I2A Pb2 I2A 89.6(2) 4_545 . ?
I2A Pb2 I2A 90.4(2) 11_545 . ?
I2A Pb2 I2A 89.6(2) 3_455 . ?
I1 Pb2 ZI3 90.000(1) 13_445 9_445 ?
I1 Pb2 ZI3 90.000(1) 5_444 9_445 ?
I2A Pb2 ZI3 171.0(11) 10 9_445 ?
I2A Pb2 ZI3 9.0(11) 2_445 9_445 ?
I2A Pb2 ZI3 9.0(11) 9_445 9_445 ?
I2A Pb2 ZI3 82.3(8) 12_455 9_445 ?
I2A Pb2 ZI3 97.7(8) 4_545 9_445 ?
I2A Pb2 ZI3 97.7(8) 11_545 9_445 ?
I2A Pb2 ZI3 82.3(8) 3_455 9_445 ?
I2A Pb2 ZI3 171.0(11) . 9_445 ?
I1 Pb2 ZI3 90.000(2) 13_445 3_455 ?
I1 Pb2 ZI3 90.000(2) 5_444 3_455 ?
I2A Pb2 ZI3 82.3(8) 10 3_455 ?
I2A Pb2 ZI3 97.7(8) 2_445 3_455 ?
I2A Pb2 ZI3 97.7(8) 9_445 3_455 ?
I2A Pb2 ZI3 9.0(11) 12_455 3_455 ?
I2A Pb2 ZI3 171.0(11) 4_545 3_455 ?
I2A Pb2 ZI3 171.0(11) 11_545 3_455 ?
I2A Pb2 ZI3 9.0(11) 3_455 3_455 ?
I2A Pb2 ZI3 82.3(8) . 3_455 ?
ZI3 Pb2 ZI3 90.000(1) 9_445 3_455 ?
I2A ZI3 Pb2 87(5) 10 . ?
I2A ZI3 Pb1 76(5) 10 . ?
Pb2 ZI3 Pb1 161(2) . . ?
Pb2 I1 Pb1 180.0 5 . ?
I2A I2A Pb1 85.4(13) 10 . ?
I2A I2A Pb2 85.5(13) 10 . ?
Pb1 I2A Pb2 170.0(15) . . ?
N1 C1 N1 66(4) 16 15_455 ?
N1 C1 N1 57.0(19) 16 2_565 ?
N1 C1 N1 57.0(19) 15_455 2_565 ?
 
_refine_diff_density_max    4.683
_refine_diff_density_min   -8.210
_refine_diff_density_rms    0.696

_shelx_res_file
;
TITL Diffuse_300K_Full_Sphere_Scan in I4/m
    Diffuse_300K_Full_Sphere_Scan.res
    created by SHELXL-2018/1 at 18:59:12 on 09-Sep-2018
REM I4/m (#87 in standard setting)
CELL 0.67511   8.882701   8.882701  12.618831  90.0000  90.0000  90.0000
ZERR    4.00   0.000306   0.000306   0.000914   0.0000   0.0000   0.0000
LATT  2
SYMM -x,-y, z
SYMM -y, x, z
SYMM  y,-x, z
SFAC C  N I Pb
DISP $I -0.52562544  1.6587340 6734.245!
DISP $Pb -2.4885242  9.3483348 36829.115!
UNIT 4.00  4.00 12.00 4.00
ACTA
LIST 3
L.S. 4
BOND
FMAP 2
PLAN 20
EXYZ C1 N1
EADP N1 C1
WGHT    0.154300  102.407104
EXTI    0.004662
FVAR       1.89160
MOLE   1
PB1   4    0.000000    0.000000    0.000000    10.12500    0.04023    0.04023 =
         0.06050    0.00000    0.00000    0.00000
PB2   4   -0.500000   -0.500000    0.000000    10.12500    0.04027    0.04027 =
         0.06032    0.00000    0.00000    0.00000
ZI3   3   -0.209270   -0.294628    0.000000     0.22665    0.06907    0.05903 =
         0.12934    0.00000    0.00000   -0.03786
I1    3    0.000000    0.000000    0.252829    10.25000    0.17120    0.17120 =
         0.05938    0.00000    0.00000    0.00000
I2A   3   -0.239546   -0.257066   -0.019861     0.30875    0.09586    0.07634 =
         0.19615   -0.02984    0.06755   -0.04215
N1    2    0.072902    0.474197    0.218155    10.25000    0.10219    0.07414 =
         0.03561    0.02991   -0.01380   -0.03168
C1    1    0.072902    0.474197    0.218155    10.25000    0.10219    0.07414 =
         0.03561    0.02991   -0.01380   -0.03168

MOLE   2
HKLF 4




REM  Diffuse_300K_Full_Sphere_Scan in I4/m
REM R1 =  0.1205 for     885 Fo > 4sig(Fo)  and  0.1229 for all    1011 data
REM     35 parameters refined using      0 restraints

END

WGHT      0.1581     97.7460

REM Highest difference peak  4.683,  deepest hole -8.210,  1-sigma level  0.696
Q1    1   0.0326  0.0588  0.0384  11.00000  0.05    4.68
Q2    1  -0.4682 -0.4418 -0.0385  11.00000  0.05    4.53
Q3    1  -0.2638 -0.2461  0.0000  10.50000  0.05    2.01
Q4    1  -0.1833 -0.2048  0.0000  10.50000  0.05    1.87
Q5    1  -0.2559 -0.3630  0.0000  10.50000  0.05    1.76
Q6    1  -0.1043  0.0006  0.2887  11.00000  0.05    1.69
Q7    1   0.0000  0.5000  0.0338  10.50000  0.05    1.61
Q8    1   0.0775  0.0129  0.2183  11.00000  0.05    1.53
Q9    1  -0.0528  0.0546  0.2235  11.00000  0.05    1.49
Q10   1  -0.0122 -0.2873  0.0644  11.00000  0.05    1.46
Q11   1  -0.2711 -0.3345 -0.0324  11.00000  0.05    1.43
Q12   1  -0.0027 -0.2565  0.0885  11.00000  0.05    1.43
Q13   1   0.0000  0.5000  0.2500  10.25000  0.05    1.37
Q14   1   0.2032  0.2935  0.2523  11.00000  0.05    1.36
Q15   1   0.2318  0.5211  0.1981  11.00000  0.05    1.32
Q16   1  -0.2139 -0.4713 -0.0374  11.00000  0.05    1.25
Q17   1  -0.2245 -0.4815  0.0000  10.50000  0.05    1.21
Q18   1  -0.2636 -0.5124  0.0922  11.00000  0.05    1.20
Q19   1   0.2664  0.5203  0.1672  11.00000  0.05    1.11
Q20   1  -0.1909  0.0075  0.0626  11.00000  0.05    1.10
;
_shelx_res_checksum   26849

_shelx_hkl_file
;
   0   0   2 357708. 8155.87   1
   0   0  -2 387397. 8156.66   1
   0   0  -4 999999. 19868.7   1
   0   0   4 821976. 19866.4   1
   0   0   6 114262. 2661.12   1
   0   0  -6 126806. 2664.22   1
   0   0  -8 289437. 6377.24   1
   0   0  12 14102.2 392.544   1
   0   0 -12 17773.6 400.805   1
   0   0  14 252.462 42.8475   1
   0   0 -14 272.002 42.3674   1
   0   0  16 1260.47 80.3364   1
   0   0 -16 1627.55 84.6163   1
   0   1  -1 30.1238 16.5981   1
   0  -1   1 29.4998 16.8868   1
   0   1   1 23.7415 19.2724   1
   1   0   1 13.3789 18.3227   1
   0  -1  -1 52.9370 19.8687   1
  -1   0  -1 5.25279 18.2194   1
  -1   0  -3 18128.1 428.248   1
   0   1   3 19649.7 428.213   1
   0   1  -3 14867.5 421.283   1
   0  -1  -3 24655.2 433.358   1
   1   0  -3 21628.4 420.838   1
   0  -1   3 15652.5 421.561   1
  -1   0   3 19438.4 419.400   1
   1   0   3 17830.3 427.790   1
  -1   0  -5 4871.03 137.393   1
  -1   0   5 5031.40 127.842   1
   1   0   5 4669.95 136.966   1
   0   1   5 4630.79 136.749   1
   0  -1  -5 5786.18 141.267   1
   1   0  -5 4637.71 128.951   1
   0   1   7 5600.05 176.988   1
   0  -1  -7 9545.79 193.855   1
   1   0   7 7215.34 186.585   1
   0   1  -7 7498.18 182.311   1
  -1   0  -7 8592.69 192.814   1
   0  -1   7 6888.90 179.860   1
  -1   0   7 4753.39 170.030   1
   1   0   9 71.5146 36.4809   1
  -1   0  -9 152.228 37.8160   1
   0   1   9 82.3910 34.9937   1
   0  -1   9 47.5982 29.5472   1
   1   0  -9 194.230 33.3661   1
  -1   0   9 85.7371 30.1506   1
   0   1  -9 86.4304 30.5890   1
   0  -1  11 185.076 36.9967   1
  -1   0 -11 257.431 39.5119   1
   0  -1 -11 209.580 37.2171   1
   0   1  11 52.0874 35.6048   1
   1   0  11 133.476 37.2785   1
   0   1 -11 259.280 37.1999   1
   1   0 -13 11.5172 29.8463   1
   1   0  13 7.07457 35.2212   1
   0  -1 -13-3.21618 34.3616   1
  -1   0  13-8.52367 31.2476   1
   0  -1  13 21.7160 33.6927   1
   0   1 -13 14.4593 30.4136   1
  -1   0 -13 7.06706 33.0797   1
   0   1  13-6.97630 33.6527   1
   1   0  15 22.8974 35.0172   1
   0  -1  15 8.02330 33.7109   1
   0   1  15 28.6030 34.2050   1
  -1   0 -15 12.9044 32.6001   1
   0   1 -15-0.57227 30.9996   1
   0  -1 -15 25.6509 32.5856   1
  -1   0 -17 17.2034 31.2917   1
   1   0  17 4.92198 33.8738   1
   1  -1   0 284798. 4277.57   1
  -1  -1   0 189626. 4267.35   1
  -1   1   0 247972. 4274.33   1
   1   1   0 144681. 4265.53   1
  -1   1  -2 42748.5 1218.45   1
   1  -1  -2 67898.0 1222.36   1
  -1   1   2 55366.7 1218.96   1
   1   1   2 60127.8 1223.81   1
  -1  -1  -2 67240.5 1226.12   1
   1  -1   2 45176.2 1219.27   1
   1  -1  -4 473435. 8220.73   1
   1   1  -4 320020. 8206.04   1
  -1  -1   4 332797. 8206.30   1
  -1   1   4 391951. 8216.20   1
   1   1   4 406625. 8223.68   1
  -1  -1  -4 459851. 8227.06   1
   1   1  -6 25514.2 497.734   1
   1   1   6 30607.2 523.277   1
  -1  -1  -6 35954.4 528.939   1
  -1   1  -6 16649.2 497.984   1
   1  -1   6 15919.2 496.854   1
   1  -1  -6 23054.0 503.311   1
  -1   1   6 16998.6 496.717   1
   1   1   8 158067. 3065.55   1
   1   1  -8 143867. 3049.39   1
  -1   1  -8 132618. 3057.22   1
   1  -1  -8 150988. 3057.32   1
  -1  -1  -8 190305. 3076.38   1
  -1  -1   8 111365. 3043.60   1
  -1   1   8 115591. 3048.50   1
   1  -1   8 138519. 3058.21   1
  -1   1  10 2966.44 104.221   1
   1   1 -10 3661.28 106.045   1
   1  -1  10 2147.50 97.5557   1
  -1  -1  10 2454.16 94.4605   1
   1  -1 -10 3571.37 108.817   1
  -1   1 -10 2358.95 99.8581   1
  -1   1  12 18315.3 390.716   1
   1   1 -12 13900.5 374.567   1
   1  -1  12 14077.4 381.818   1
  -1  -1 -12 17523.1 393.608   1
   1   1  12 14880.7 386.582   1
  -1   1 -12 15201.7 384.375   1
  -1  -1  12 13250.2 373.153   1
   1  -1 -12 16258.8 384.703   1
  -1   1 -14 216.020 41.3916   1
   1  -1 -14 166.392 38.0465   1
  -1  -1 -14 169.416 41.1444   1
   1   1  14 173.607 42.8788   1
   1  -1  14 173.363 41.7122   1
  -1  -1  14 173.334 39.3506   1
  -1   1  14 198.952 40.1165   1
   1   1 -14 159.535 36.9488   1
   1  -1  16 1301.46 79.2514   1
   1  -1 -16 1531.66 80.6652   1
  -1   1 -16 1519.71 81.1833   1
  -2   1  -1 25549.7 781.216   1
   2  -1   1 28354.9 782.781   1
   1   2  -1 38182.1 780.533   1
  -1  -2  -1 43188.7 789.216   1
   2  -1  -1 36033.8 782.675   1
  -1  -2   1 44428.9 782.949   1
   1   2   1 37718.6 786.390   1
  -2   1   1 30608.6 780.532   1
  -1  -2   3 26036.1 558.037   1
   1   2   3 21680.8 567.437   1
   2  -1  -3 31834.0 566.177   1
  -2   1  -3 21555.4 567.167   1
   1   2  -3 23120.3 556.326   1
  -1  -2  -3 26323.0 572.596   1
   2  -1   3 23042.4 569.193   1
  -2   1   3 25656.3 562.826   1
  -1  -2   5 28457.1 528.863   1
   1   2   5 25763.6 550.661   1
   2  -1   5 15115.3 528.661   1
  -2   1  -5 15338.3 529.412   1
  -1  -2  -5 34962.1 557.529   1
   1   2  -5 26358.1 527.090   1
  -2   1  -7 7197.81 182.252   1
  -1  -2   7 5405.66 161.396   1
  -2   1   7 7122.07 172.274   1
   2  -1   7 7947.41 186.877   1
   1   2   7 4674.43 172.844   1
   1   2  -7 4766.91 158.812   1
  -1  -2  -7 6277.88 177.588   1
   2  -1  -7 10114.6 180.595   1
   2  -1   9 1529.70 83.4480   1
   1   2  -9 4065.63 97.9131   1
  -2   1   9 1105.97 73.9222   1
   2  -1  -9 2038.63 82.7082   1
  -1  -2   9 3288.63 91.5691   1
   1   2   9 3595.04 105.608   1
  -2   1  -9 1424.04 81.2146   1
  -1  -2  -9 4416.57 112.992   1
   2  -1 -11 478.796 41.3381   1
   1   2 -11 295.856 35.9629   1
   1   2  11 216.234 45.9368   1
   2  -1  11 361.949 45.1210   1
  -1  -2  11 235.071 35.8580   1
  -1  -2 -11 367.166 48.2613   1
  -2   1  11 290.613 40.5766   1
  -2   1 -11 399.962 45.7322   1
   2  -1  13 21.2428 35.6510   1
  -2   1 -13 33.5086 34.5756   1
   1   2 -13 47.1092 28.4840   1
  -2   1  13 29.4638 33.2050   1
  -1  -2 -13 57.8496 36.5502   1
   2  -1 -13 33.4147 31.9972   1
  -1  -2  13 31.7682 30.0251   1
   1   2  13 35.4162 37.6002   1
  -2   1  15 7.30599 32.5248   1
   1   2  15-0.59466 36.0340   1
   2  -1  15 13.0707 36.6455   1
   2  -1 -15 0.56133 30.7467   1
  -1  -2 -15 10.1009 35.0604   1
  -2   1 -15 3.56161 33.9433   1
   1   2  17 31.7838 35.5836   1
   2  -1  17 1.22761 34.7895   1
  -2   1 -17 5.51724 30.9005   1
  -1  -2 -17 3.05316 31.0993   1
   0  -2   0 83553.0 1397.15   1
   2   0   0 56632.7 1386.98   1
   0   2   0 66960.1 1392.79   1
  -2   0   0 55615.2 1386.58   1
   0  -2   2 155441. 3072.20   1
   0   2  -2 133328. 3069.38   1
   2   0   2 115849. 3070.58   1
   0  -2  -2 157134. 3077.42   1
   2   0  -2 161615. 3062.44   1
   0   2   2 140999. 3074.66   1
  -2   0  -2 110566. 3069.97   1
  -2   0   2 134547. 3060.89   1
   0  -2   4 94124.5 2129.74   1
   2   0   4 84291.1 2134.25   1
   0   2  -4 84198.7 2127.32   1
   2   0  -4 107646. 2122.11   1
   0  -2  -4 125977. 2145.35   1
  -2   0  -4 87703.8 2135.52   1
  -2   0   4 93969.0 2120.04   1
   0   2   4 98730.5 2138.13   1
   0   2   6 5755.19 168.303   1
   2   0   6 5269.00 168.293   1
   0   2  -6 5797.00 159.066   1
   0  -2  -6 8053.89 174.996   1
   2   0  -6 6678.98 153.410   1
  -2   0   6 5286.03 151.536   1
  -2   0  -6 5670.86 167.948   1
   0  -2   6 6381.37 160.809   1
   2   0  -8 82734.3 1803.83   1
   0   2   8 80165.6 1815.87   1
   0   2  -8 73784.1 1807.61   1
   0  -2  -8 105012. 1828.66   1
   0  -2   8 79574.0 1811.20   1
  -2   0   8 75048.4 1801.09   1
   2   0 -10 1655.18 71.9780   1
  -2   0  10 1293.13 63.0718   1
  -2   0 -10 1609.47 77.9272   1
   0  -2 -10 2155.64 83.3726   1
   0  -2  10 983.751 63.0267   1
   0   2  10 1370.38 73.9778   1
   2   0  10 1828.32 80.7658   1
   0   2 -10 1499.40 69.2530   1
   2   0  12 12972.8 362.538   1
  -2   0 -12 14277.2 365.412   1
   0   2 -12 13992.5 358.518   1
   0  -2  12 14440.3 360.522   1
   0   2  12 14397.9 364.887   1
   0  -2 -12 15435.5 367.560   1
   0   2  14 241.654 43.7613   1
   0  -2 -14 251.673 43.7612   1
  -2   0  14 130.819 36.6818   1
  -2   0 -14 210.588 42.6596   1
   0   2 -14 151.836 38.5865   1
   2   0 -14 140.294 34.9075   1
   2   0  14 125.666 41.9485   1
   0  -2  14 149.322 39.7940   1
  -2   0 -16 1634.23 84.1238   1
   2   0  16 1296.88 79.6099   1
  -2  -1   1 36150.2 764.302   1
   1  -2   1 33960.0 776.104   1
  -2  -1  -1 38893.7 775.565   1
   1  -2  -1 35386.6 776.998   1
  -1   2   1 30934.5 774.382   1
   2   1   1 34226.7 773.235   1
   2   1  -1 34100.5 763.846   1
  -1   2  -1 31495.8 774.689   1
  -2  -1  -3 22955.7 478.321   1
   2   1   3 18482.5 473.599   1
  -2  -1  -5 30889.3 524.384   1
  -2  -1   5 25099.9 487.990   1
  -1   2   5 17522.2 502.160   1
   1  -2  -5 18466.0 504.684   1
   1  -2   5 17597.3 500.282   1
   2   1   5 28627.5 521.830   1
  -1   2  -5 17429.7 500.248   1
   1  -2  -7 9428.60 178.318   1
  -1   2   7 8370.63 173.370   1
   2   1   7 4728.17 159.353   1
   1  -2   7 7814.28 173.352   1
  -2  -1   7 4419.80 141.926   1
  -2  -1  -7 5864.96 165.517   1
  -1   2  -7 6912.36 169.161   1
   2   1  -7 4468.14 141.780   1
  -1   2   9 1510.15 84.7499   1
   1  -2   9 1662.67 87.8577   1
   2   1  -9 3745.32 95.1637   1
   2   1   9 4965.33 121.932   1
  -2  -1   9 2834.14 87.5221   1
  -1   2  -9 1913.61 90.0623   1
  -2  -1  -9 4458.46 118.670   1
   1  -2  -9 2299.40 93.7275   1
   2   1 -11 293.912 33.2374   1
  -2  -1  11 201.909 32.0698   1
  -1   2  11 162.913 40.5166   1
  -1   2 -11 302.835 40.6368   1
  -2  -1 -11 276.224 45.5045   1
   1  -2 -11 406.378 43.6183   1
   2   1  11 192.445 43.9774   1
   1  -2  11 373.960 43.3977   1
   1  -2 -13 34.9951 35.6562   1
  -1   2  13 34.4982 37.1098   1
   1  -2  13 28.1371 35.0324   1
  -1   2 -13 48.6586 32.8920   1
   2   1  13 53.7144 38.8522   1
  -2  -1 -13 53.6696 38.6924   1
   1  -2 -15 8.19663 31.5934   1
  -1   2  15 7.03532 33.9970   1
  -1   2 -15 1.17275 32.7973   1
   1  -2  15 12.3306 35.5162   1
  -2  -1 -17-1.82253 33.4470   1
   2   1  17 6.69005 35.6818   1
  -2  -2   0 366182. 10739.1   1
   2   2   0 708187. 10749.8   1
   2   2  -2 241394. 6845.55   1
   2   2   2 414748. 6871.02   1
  -2  -2  -2 475656. 6875.44   1
   2  -2   2 323577. 6867.85   1
  -2   2  -2 329223. 6866.42   1
  -2  -2   2 317947. 6847.52   1
  -2   2   4 807981. 17075.2   1
  -2   2  -4 628130. 17073.8   1
   2  -2   4 690495. 17076.6   1
  -2  -2  -4 877082. 17085.1   1
   2  -2  -4 968246. 17080.2   1
   2   2   4 752177. 17080.6   1
  -2  -2   6 122518. 2395.45   1
  -2   2  -6 90014.2 2411.92   1
   2  -2  -6 110445. 2419.01   1
   2  -2   6 95341.0 2414.07   1
   2   2   6 101477. 2422.15   1
  -2  -2  -6 123462. 2428.14   1
   2   2  -6 106962. 2393.69   1
  -2   2   6 109516. 2412.95   1
   2   2   8 193166. 4753.92   1
   2  -2  -8 255516. 4756.78   1
  -2   2   8 203069. 4747.43   1
  -2  -2  -8 213193. 4758.06   1
  -2  -2 -10 13002.8 276.183   1
   2  -2  10 9581.29 256.707   1
   2   2  10 11549.1 270.607   1
   2   2 -10 7975.54 236.337   1
  -2  -2  10 9446.44 239.903   1
  -2   2 -10 8469.72 251.197   1
   2   2 -12 15055.7 434.376   1
   2  -2 -12 22009.7 459.681   1
   2   2  12 22695.5 468.192   1
   2  -2  12 18372.2 458.345   1
  -2   2  12 18756.8 452.969   1
  -2  -2  12 16554.5 437.596   1
  -2   2 -12 18681.1 456.101   1
  -2   2  14 489.529 51.2998   1
   2   2  14 472.598 52.5885   1
  -2  -2 -14 455.214 50.7100   1
  -2  -2  14 343.158 40.6033   1
   2  -2  14 359.174 48.9802   1
  -2   2 -14 416.730 47.9618   1
   2   2 -14 279.718 40.0073   1
   2  -2 -14 583.508 51.4804   1
   2   2  16 1348.95 80.5307   1
   2  -2  16 1200.81 77.0751   1
  -2   2 -16 1368.87 78.5048   1
  -2  -2 -16 1763.49 86.5707   1
   2   2  18 61.9365 37.1139   1
  -2  -2 -18 60.6681 33.9068   1
  -3   2   1 7896.36 240.575   1
  -2  -3   1 12927.9 242.579   1
   3  -2   1 9284.71 244.924   1
   2   3   1 10771.9 245.564   1
   3  -2  -1 10052.0 244.750   1
   2   3  -1 10992.6 238.667   1
  -3   2  -1 7557.80 241.171   1
  -2  -3  -3 35088.7 543.096   1
   2   3  -3 29501.1 512.233   1
  -3   2   3 19381.9 515.807   1
   2   3   3 29770.2 536.382   1
   3  -2  -3 20260.0 516.212   1
   3  -2   3 14765.5 515.903   1
  -3   2  -3 16532.4 517.866   1
  -2  -3  -5 3759.92 123.760   1
   2   3   5 2956.13 117.618   1
   3  -2  -5 4500.55 120.228   1
   2   3  -5 3731.77 101.813   1
   3  -2   5 4190.63 126.261   1
  -3   2  -5 3678.35 121.876   1
  -2  -3   5 4360.67 103.690   1
   3  -2  -7 6647.16 231.347   1
  -2  -3  -7 15558.4 272.706   1
   2   3   7 13219.1 265.488   1
  -3   2  -7 7028.56 236.335   1
   2   3  -7 12647.4 229.232   1
  -3   2   7 4786.58 222.458   1
   3  -2   7 6656.34 235.416   1
  -2  -3   7 13757.8 231.210   1
   2   3  -9 532.370 34.4687   1
   2   3   9 578.845 52.1579   1
  -3   2   9 333.631 40.6174   1
   3  -2  -9 562.592 44.2407   1
   3  -2   9 310.030 47.8082   1
  -3   2  -9 318.218 46.4901   1
  -2  -3  -9 624.314 53.3329   1
  -2  -3   9 587.084 36.1378   1
  -2  -3  11 408.020 37.9250   1
  -3   2 -11 370.930 48.9819   1
   3  -2  11 235.974 49.4464   1
   2   3 -11 569.678 41.0795   1
  -3   2 -13 18.9889 35.1473   1
   3  -2  13 21.8853 37.8475   1
   3  -2 -13 57.9453 32.4531   1
  -2  -3 -13 15.6390 36.2690   1
   2   3  13 22.0254 38.8231   1
   2   3 -13 38.9823 27.2033   1
  -2  -3  13 52.7397 28.4828   1
  -3   2  13 23.6123 30.7366   1
  -3   2 -15-10.7940 32.8705   1
   2   3  15 13.1508 38.7898   1
   3  -2  15 3.00143 35.7122   1
  -2  -3 -15 7.76598 35.5838   1
  -2  -3 -17-0.59881 34.4500   1
  -3   2 -17 4.87059 31.9700   1
   3  -2  17 1.21867 34.6313   1
   2   3  17 50.3386 37.5600   1
  -1  -3  -2 124292. 2268.49   1
  -1  -3   2 123828. 2258.84   1
   3  -1   2 83390.8 2258.03   1
   1   3  -2 101287. 2254.14   1
   1   3   2 104993. 2263.08   1
   3  -1  -2 115918. 2256.80   1
  -3   1  -2 76447.5 2256.24   1
  -3   1   2 96983.9 2252.56   1
   3  -1   4 289998. 7684.89   1
   1   3  -4 328157. 7673.79   1
  -1  -3   4 393279. 7677.81   1
  -3   1   4 352433. 7674.64   1
  -1  -3  -4 386193. 7694.06   1
   1   3   4 330664. 7687.42   1
  -3   1  -4 269839. 7681.82   1
   3  -1  -4 438794. 7679.41   1
  -3   1  -6 40597.9 962.469   1
  -1  -3  -6 47630.7 969.444   1
  -1  -3   6 45294.3 950.708   1
   3  -1   6 44034.6 965.223   1
   1   3   6 36209.4 961.075   1
   1   3  -6 40118.0 946.603   1
  -1  -3   8 130592. 2899.22   1
   1   3  -8 104723. 2893.35   1
   3  -1   8 132059. 2916.15   1
   3  -1  -8 163130. 2906.53   1
  -3   1  -8 116123. 2909.87   1
   1   3   8 127910. 2912.87   1
  -3   1   8 142930. 2901.54   1
  -1  -3  -8 142821. 2918.65   1
   1   3 -10 6780.30 218.816   1
   3  -1  10 9674.53 242.702   1
   1   3  10 7985.09 236.145   1
  -3   1  10 8577.20 225.351   1
  -3   1 -10 8917.56 238.759   1
   3  -1 -10 12089.8 238.607   1
  -1  -3 -10 7636.70 235.052   1
  -1  -3  10 8512.68 226.486   1
   3  -1  12 15442.4 438.673   1
  -1  -3 -12 18471.4 443.471   1
  -3   1 -12 17206.7 440.457   1
   1   3  12 19679.3 448.343   1
  -3   1 -14 401.602 50.5948   1
   3  -1 -14 409.345 44.1649   1
  -3   1  14 449.793 45.6125   1
   3  -1  14 297.944 50.4573   1
  -1  -3  14 354.769 45.4317   1
   1   3  14 566.724 54.1701   1
  -1  -3 -14 608.115 55.2569   1
   1   3 -14 338.768 43.7159   1
  -1  -3 -16 1578.13 82.4166   1
   1   3  16 1387.00 80.9804   1
   3  -1  16 1216.00 76.7141   1
  -3   1 -16 1498.05 80.0336   1
   0   3   1 15868.2 331.110   1
   3   0  -1 12283.6 316.383   1
   0  -3  -1 17877.2 334.764   1
  -3   0   1 12350.1 315.668   1
   3   0  -3 45.9004 14.7917   1
   3   0   3 13.1805 31.7026   1
  -3   0   3 57.6311 15.2209   1
   0   3   3 35.8419 32.2113   1
  -3   0  -3 14.3294 30.0517   1
   0  -3  -3 41.0839 32.4755   1
  -3   0  -5 18462.5 504.675   1
   0   3   5 22404.0 509.280   1
   3   0   5 19197.8 505.205   1
  -3   0   5 19722.4 482.550   1
   3   0  -5 25382.4 485.579   1
   0   3  -5 20654.3 499.126   1
   0  -3   5 22521.2 502.544   1
   0   3   7 12.7176 31.6880   1
  -3   0   7 81.0660 19.5349   1
   0   3  -7 18.0690 27.3375   1
   0  -3  -7 24.1929 33.4635   1
   3   0  -7 154.120 20.9745   1
   0  -3   7 35.1814 27.3075   1
   3   0   9 4287.61 128.210   1
  -3   0   9 2314.90 93.3930   1
   0   3   9 3615.62 123.118   1
   0  -3  -9 3870.54 123.302   1
   0   3  -9 3941.85 115.854   1
  -3   0  -9 3594.36 121.946   1
   0  -3   9 3347.86 111.255   1
   3   0  -9 3589.76 102.587   1
  -3   0 -11 246.363 43.0278   1
  -3   0  11 75.9472 26.4998   1
   0   3 -11 320.754 38.1026   1
   0  -3 -11 441.595 46.7249   1
   3   0 -11 237.585 32.1975   1
   0   3  11 145.581 44.0612   1
   0  -3  11 237.754 37.4718   1
   3   0  11 200.422 45.0125   1
  -3   0  13 49.3186 29.1475   1
   3   0 -13 57.5593 28.9187   1
   0   3 -13 154.241 34.5106   1
   0  -3  13 115.967 34.5569   1
   0   3  13 38.4614 37.4092   1
  -3   0 -13 84.8618 38.8687   1
   0  -3 -13 94.9279 39.3040   1
   3   0  13 24.6743 38.4463   1
   3   0  15 16.1204 36.4408   1
   0   3  15 10.7559 36.2761   1
  -3   0 -15 30.4225 35.9520   1
   0  -3 -15-5.97022 34.6898   1
   0   3 -15 13.2347 32.3676   1
   0  -3  15 36.8836 35.8974   1
   3   0  17 26.5652 35.5389   1
   0   3  17 25.2028 36.7327   1
   0  -3 -17 12.8952 34.0810   1
  -3   0 -17 27.7500 33.7690   1
  -1   3   0 416118. 9161.11   1
   3   1   0 399619. 9149.39   1
   1  -3   0 488749. 9164.16   1
  -3  -1   0 396818. 9149.35   1
   1  -3   2 112641. 2003.13   1
   3   1   2 93112.7 1995.57   1
   3   1  -2 89229.1 1976.56   1
  -3  -1  -2 94648.9 1996.42   1
  -1   3   2 97061.8 2000.62   1
  -1   3  -2 94861.8 1997.65   1
   1  -3  -2 110451. 2006.14   1
  -3  -1   2 77255.4 1975.65   1
   1  -3  -4 397273. 7430.73   1
   3   1   4 295153. 7419.22   1
  -3  -1  -4 315755. 7421.12   1
   1  -3   4 362702. 7421.71   1
  -1   3   4 354868. 7423.59   1
  -1   3  -4 318349. 7417.45   1
  -3  -1   6 28624.4 715.707   1
   3   1   6 36474.1 755.175   1
   1  -3   6 47669.8 760.611   1
  -3  -1  -6 39023.1 758.955   1
   3   1  -6 26146.7 714.917   1
   1  -3  -6 55656.9 771.925   1
  -1   3  -6 41434.4 754.420   1
  -1   3   6 47480.5 762.880   1
  -3  -1  -8 107512. 2395.40   1
   3   1  -8 90247.2 2362.81   1
   1  -3   8 149460. 2407.16   1
  -1   3  -8 121005. 2396.67   1
   3   1   8 115340. 2398.99   1
  -3  -1   8 106081. 2365.52   1
  -1   3 -10 9544.31 217.590   1
   3   1  10 5852.59 205.057   1
  -3  -1  10 6205.45 185.577   1
   3   1 -10 5496.69 183.335   1
   1  -3  10 10237.0 220.677   1
   1  -3 -10 13059.6 236.188   1
  -3  -1 -10 6716.33 209.979   1
  -1   3  10 10008.0 223.943   1
   1  -3  12 16680.8 408.112   1
   3   1 -12 12642.2 383.463   1
  -1   3 -12 15847.5 404.870   1
   1  -3 -12 22240.4 425.457   1
  -1   3  12 19630.8 418.838   1
  -3  -1 -12 14411.1 405.511   1
   3   1  12 21157.1 426.668   1
  -3  -1  12 14688.5 387.361   1
   1  -3 -14 639.709 54.7484   1
   3   1  14 389.639 52.8970   1
  -3  -1 -14 459.923 52.2921   1
  -1   3 -14 476.426 49.2770   1
  -1   3  14 576.043 54.1039   1
   1  -3  14 451.385 49.6451   1
  -3  -1 -16 1677.99 86.3248   1
   1  -3 -16 1607.61 84.7167   1
  -1   3  16 1725.86 86.6593   1
   3   1  16 1330.95 80.9841   1
  -2   3  -1 7639.88 241.106   1
   2  -3  -1 9624.91 245.403   1
  -3  -2   1 12081.0 233.700   1
   2  -3   1 9814.80 245.985   1
  -2   3   1 8012.42 240.832   1
   3   2  -1 10434.8 231.183   1
   3   2   3 28158.4 506.951   1
   2  -3   3 17987.0 494.041   1
  -2   3   3 18664.3 492.223   1
  -2   3  -3 17501.4 492.872   1
   2  -3  -3 19823.8 494.769   1
  -3  -2  -3 29631.0 508.253   1
  -2   3  -5 3814.94 121.758   1
   2  -3   5 4327.21 125.745   1
   2  -3  -5 4773.46 126.349   1
  -3  -2  -5 3401.93 121.832   1
  -2   3   5 4618.53 124.728   1
   3   2   5 2986.56 119.303   1
  -3  -2  -7 14650.0 266.256   1
   2  -3  -7 7672.23 238.888   1
   3   2  -7 8448.90 208.003   1
  -3  -2   7 9521.52 209.097   1
   2  -3   7 7304.84 235.556   1
   3   2   7 14487.5 265.069   1
  -2   3  -7 7628.28 236.757   1
  -3  -2   9 495.931 27.8006   1
  -2   3   9 469.443 48.6321   1
  -2   3  -9 409.013 47.8075   1
   3   2   9 608.582 55.0183   1
   2  -3  -9 603.919 51.5393   1
  -3  -2  -9 648.277 55.0044   1
   2  -3   9 463.691 48.3051   1
   3   2  -9 441.579 26.6541   1
   3   2 -11 516.318 34.7157   1
  -3  -2  11 346.418 30.7326   1
  -2   3 -11 499.448 50.0292   1
  -3  -2 -11 876.129 66.1505   1
   2  -3  11 437.696 50.8179   1
   3   2  11 271.682 51.1213   1
   2  -3 -11 520.649 49.5828   1
  -2   3  11 244.575 45.1757   1
  -2   3  13 38.0800 34.3633   1
   3   2 -13 43.1492 24.8737   1
  -2   3 -13 34.5287 34.1013   1
   3   2  13 22.6372 39.3737   1
   2  -3 -13 52.3785 33.7383   1
   2  -3  13 10.2001 35.2435   1
  -3  -2  13 33.3570 24.5549   1
  -2   3  15 27.3748 34.6247   1
  -3  -2 -15 14.3110 36.2876   1
   2  -3  15 21.6090 36.2220   1
  -2   3 -15 3.59792 31.4905   1
   3   2  15 37.5943 39.0494   1
   2  -3 -15 25.5525 33.7295   1
  -3  -2 -17 5.95398 32.3740   1
   3   2  17 32.7752 36.5869   1
   3  -3   0 107476. 2333.31   1
  -3   3   0 102257. 2333.48   1
   3  -3  -2 17191.3 529.215   1
   3   3  -2 29446.7 522.310   1
   3  -3   2 14322.7 525.342   1
  -3   3   2 17339.9 528.788   1
  -3   3  -2 14946.1 526.854   1
   3   3   2 26645.8 540.394   1
  -3  -3  -2 30569.4 544.954   1
  -3  -3   2 35263.5 526.920   1
  -3  -3   4 122528. 2470.94   1
  -3  -3  -4 122997. 2502.71   1
  -3   3   4 102275. 2492.76   1
   3  -3  -4 116703. 2500.37   1
   3   3   4 102452. 2497.73   1
   3   3  -4 119123. 2469.53   1
  -3   3  -4 85321.4 2491.74   1
   3  -3   4 95946.4 2495.06   1
  -3  -3  -6 32373.5 527.696   1
  -3  -3   6 24780.7 471.978   1
   3   3  -6 19368.6 470.094   1
   3  -3  -6 16581.1 495.569   1
  -3   3   6 13016.0 487.150   1
   3   3   6 28173.1 526.067   1
   3   3   8 70716.6 1378.11   1
   3   3  -8 52955.5 1331.28   1
  -3  -3  -8 68196.5 1376.25   1
  -3   3  -8 50140.5 1360.33   1
   3  -3  -8 76440.2 1374.67   1
  -3   3   8 59889.4 1361.37   1
   3  -3   8 55054.7 1364.07   1
  -3  -3   8 65090.6 1334.07   1
  -3   3  10 4771.67 154.426   1
   3  -3 -10 6597.99 165.407   1
   3  -3  10 4227.55 157.511   1
  -3   3 -12 11942.8 309.648   1
   3  -3  12 13665.4 317.800   1
  -3   3  12 14061.7 314.850   1
   3   3  12 13958.8 319.047   1
  -3  -3  12 10397.0 280.617   1
  -3  -3 -12 11360.6 308.491   1
   3   3 -12 8822.12 276.208   1
   3  -3 -12 15161.3 318.281   1
   3   3  14 583.754 58.1433   1
  -3   3 -14 635.805 55.6043   1
   3  -3  14 547.994 55.0391   1
  -3  -3 -14 612.429 57.8162   1
  -3  -3 -16 1284.98 71.8350   1
   3  -3  16 1033.48 68.7869   1
   3   3  16 966.961 67.1204   1
  -3   3 -16 933.618 64.7119   1
   3   3  18 52.1233 35.9959   1
  -3  -3 -18 72.3338 34.1081   1
  -3  -4  -1 24713.5 453.557   1
  -4   3   1 14961.7 439.499   1
   3   4   1 20163.1 445.432   1
   4  -3  -1 18596.3 446.346   1
   3   4  -1 20628.0 439.482   1
  -4   3  -1 12938.7 439.334   1
  -3  -4   1 22474.5 441.873   1
   4  -3   1 17225.0 446.104   1
  -4   3  -3 8782.85 278.371   1
   4  -3   3 11234.1 286.917   1
   3   4   3 9891.85 279.696   1
   4  -3  -3 12892.6 285.690   1
  -3  -4  -3 11924.2 286.493   1
   3   4  -3 11163.1 265.391   1
  -3  -4   3 12334.4 267.951   1
  -4   3   3 10735.4 279.838   1
  -4   3   5 9734.74 348.236   1
  -4   3  -5 9720.04 353.114   1
   4  -3  -5 11760.4 354.649   1
  -3  -4   5 22650.1 349.028   1
  -3  -4  -5 20349.0 386.295   1
   3   4  -5 18539.2 344.525   1
   3   4   5 17294.5 380.089   1
   4  -3   5 9712.34 353.235   1
  -3  -4   7 3018.04 81.9259   1
  -4   3   7 3154.08 108.175   1
  -3  -4  -7 3064.47 112.061   1
  -4   3  -7 2593.78 107.192   1
   3   4   7 2549.23 106.889   1
   4  -3   7 3386.22 115.779   1
   3   4  -7 2656.38 80.3984   1
   4  -3  -7 3740.40 110.626   1
  -3  -4   9 2952.29 72.4886   1
   3   4  -9 2572.64 70.3239   1
  -4   3  -9 1143.07 81.1544   1
   4  -3   9 1300.36 84.2786   1
  -3  -4 -11 369.136 49.6518   1
   4  -3 -11 242.927 40.3107   1
   3   4  11 267.245 49.3909   1
  -3  -4  11 245.522 25.8813   1
  -4   3  11 180.596 39.2049   1
   3   4 -11 217.916 24.4648   1
  -3  -4 -13 58.2923 38.7458   1
  -4   3 -13 70.7080 37.0331   1
   4  -3 -13 47.0525 33.5546   1
  -4   3  13 47.6466 34.5801   1
   4  -3  13 68.9943 40.1084   1
   3   4  13 44.1808 39.1764   1
   4  -3  15 22.8781 36.9847   1
  -4   3 -15 7.21798 33.0692   1
  -4   3 -17 18.5478 32.8928   1
   4  -3  17 5.98941 36.3369   1
   3   4  17-9.87653 33.1761   1
  -3  -4 -17-21.4809 32.9274   1
   4  -2   0 44574.1 912.350   1
  -2  -4   0 42238.3 909.664   1
  -4   2   0 34493.5 905.954   1
   2   4   0 39649.6 905.147   1
   2   4   2 2327.19 90.0480   1
  -4   2  -2 2310.74 91.0916   1
   2   4  -2 2286.75 81.6317   1
  -4   2   2 3914.77 97.9585   1
   4  -2   2 2112.34 88.6103   1
   4  -2  -2 2756.59 88.2291   1
  -2  -4  -2 2658.52 92.4594   1
  -2  -4   2 2912.45 84.0395   1
  -4   2  -4 39455.1 1201.63   1
   4  -2   4 47719.2 1208.62   1
   2   4   4 50564.0 1208.24   1
   4  -2  -4 67493.3 1205.46   1
  -2  -4  -4 62208.6 1216.37   1
  -4   2   4 54932.3 1198.47   1
   4  -2   6 5867.06 192.977   1
  -2  -4  -6 11622.2 221.371   1
   2   4   6 9424.62 215.416   1
  -4   2   6 5687.49 182.261   1
   4  -2  -6 7717.64 190.524   1
  -4   2  -6 5644.10 191.816   1
   2   4   8 55288.3 1256.36   1
   2   4  -8 53207.8 1232.13   1
  -4   2   8 57333.0 1242.93   1
   4  -2   8 50844.3 1253.05   1
  -2  -4   8 63316.3 1237.28   1
  -4   2  -8 46985.1 1249.52   1
  -2  -4  -8 55321.3 1256.88   1
   4  -2 -10 7517.29 193.837   1
  -2  -4  10 7454.53 188.159   1
   2   4 -10 7075.55 186.068   1
  -4   2  10 5782.02 186.529   1
  -2  -4 -12 12664.0 345.972   1
   4  -2  12 12583.2 348.418   1
  -4   2  12 16534.2 347.365   1
   2   4  12 14331.6 353.647   1
   4  -2 -12 17473.6 350.373   1
   2   4 -12 10068.9 322.496   1
  -4   2 -12 12783.2 345.903   1
  -2  -4  12 12995.5 330.191   1
  -2  -4 -14 840.362 64.1787   1
   4  -2  14 688.257 58.8461   1
   2   4  14 822.516 63.8413   1
  -4   2 -14 848.200 61.1463   1
  -2  -4 -16 1165.44 70.0429   1
  -4   2 -16 1061.60 67.0237   1
   2   4  16 962.226 67.9609   1
   4  -2  16 899.615 65.8647   1
   2   4  18 64.0236 36.4861   1
  -2  -4 -18 66.2920 35.0320   1
  -1  -4   1 47848.8 938.740   1
  -4   1   1 37696.2 930.238   1
   1   4  -1 41600.7 934.218   1
   1   4   1 42190.2 937.970   1
  -4   1  -1 33744.9 931.271   1
   4  -1   1 42179.8 936.728   1
  -1  -4  -1 47870.6 942.438   1
  -1  -4  -3 48803.3 921.691   1
   1   4   3 44074.5 916.553   1
   4  -1   3 31387.3 904.984   1
  -4   1  -3 26347.4 901.215   1
   1   4  -3 45235.4 906.072   1
  -1  -4   3 52882.5 911.051   1
   4  -1   5 23964.4 519.855   1
   1   4  -5 20366.5 500.107   1
  -1  -4  -5 25138.2 521.179   1
   1   4   5 18224.5 509.062   1
  -1  -4   5 23916.9 504.179   1
  -4   1  -5 19301.4 510.968   1
   1   4  -7 14315.0 289.260   1
  -1  -4  -7 19992.4 324.032   1
  -1  -4   7 16443.2 294.220   1
   1   4   7 15413.2 315.410   1
   4  -1  -7 12026.2 276.850   1
  -4   1  -7 7863.57 283.484   1
   4  -1   7 8275.55 285.236   1
  -4   1   7 7680.69 269.885   1
   4  -1   9 4115.08 129.503   1
   1   4  -9 3039.34 107.107   1
   4  -1  -9 4187.58 111.194   1
  -1  -4  -9 2989.98 119.217   1
  -1  -4   9 3608.11 112.009   1
  -4   1  -9 3244.57 120.444   1
   1   4   9 2596.07 115.078   1
  -4   1   9 3833.84 108.293   1
  -1  -4  11 1119.51 59.0260   1
   1   4  11 652.808 62.5547   1
   1   4 -11 996.736 54.9773   1
  -1  -4 -11 1493.60 73.6336   1
  -4   1 -11 787.926 60.6510   1
  -4   1  11 592.456 45.7533   1
   4  -1 -11 779.767 48.6918   1
   4  -1  11 804.976 62.7744   1
   1   4  13 132.311 41.8049   1
  -1  -4  13 192.629 37.0586   1
   4  -1  13 113.240 41.3221   1
   1   4 -13 161.787 34.5295   1
  -4   1 -13 137.666 40.0380   1
  -1  -4 -13 153.179 41.7914   1
  -1  -4 -15 29.3784 37.0282   1
  -4   1 -15 25.1119 34.9028   1
   4  -1  15 16.1562 38.8951   1
   1   4  15 36.0056 38.3691   1
   4  -1  17 22.0599 36.1290   1
  -1  -4 -17 13.8164 33.9540   1
   1   4  17 11.4251 36.7658   1
  -4   1 -17 4.17107 32.3254   1
   0  -4   0 877700. 17824.6   1
   0   4   0 758710. 17817.7   1
   4   0  -2 308191. 6483.66   1
   0  -4   2 353990. 6501.19   1
   0   4  -2 294760. 6495.26   1
   4   0   2 244641. 6492.35   1
   0   4   2 297610. 6499.79   1
  -4   0  -2 238391. 6490.99   1
   0  -4  -2 364603. 6507.87   1
   4   0   4 397938. 10147.6   1
   0   4   4 459515. 10153.7   1
  -4   0   4 425737. 10126.1   1
  -4   0  -4 384717. 10146.5   1
   0  -4   4 540959. 10151.4   1
   0   4  -4 452698. 10144.8   1
   0  -4  -4 560957. 10162.1   1
   4   0  -4 510985. 10128.6   1
   0  -4   6 109759. 1945.02   1
  -4   0   6 75191.2 1913.56   1
   0   4  -6 92353.8 1937.67   1
   4   0  -6 89978.6 1915.92   1
   0   4   8 123082. 2803.19   1
   4   0   8 126226. 2801.71   1
  -4   0  -8 121787. 2800.06   1
  -4   0   8 114979. 2768.68   1
   0   4  -8 120257. 2789.63   1
   0  -4  -8 148052. 2810.99   1
   4   0  -8 126616. 2770.54   1
   0  -4   8 144077. 2797.71   1
   4   0 -10 12525.4 309.200   1
   4   0  10 12937.1 335.544   1
   0  -4 -10 14755.3 342.637   1
  -4   0  10 12204.8 308.000   1
   0   4  10 13441.8 336.953   1
  -4   0 -10 12750.1 335.446   1
  -4   0  12 15136.8 388.106   1
  -4   0 -12 14746.9 408.274   1
   0  -4  12 18193.4 411.368   1
   0   4 -12 15058.1 402.280   1
   0   4  12 20315.3 422.891   1
   4   0 -12 15154.3 388.648   1
   4   0  12 15164.8 410.705   1
   0  -4 -12 18929.7 418.526   1
   4   0  14 671.955 62.2306   1
   0   4 -14 810.796 57.7429   1
   0   4  14 867.734 64.8192   1
   0  -4  14 796.363 60.2063   1
  -4   0 -14 776.350 64.9634   1
   0  -4 -14 982.493 65.9816   1
   0   4  16 1413.92 78.6843   1
  -4   0 -16 1281.08 74.4473   1
   0  -4 -16 1635.51 81.4483   1
   4   0  16 946.778 69.8838   1
   4   0  18 44.4340 36.4980   1
  -4   0 -18 65.4329 34.4069   1
  -4  -1  -1 35587.2 897.505   1
   4   1  -1 39972.5 890.690   1
  -1   4  -1 42738.8 908.404   1
  -1   4   1 42967.2 909.301   1
   1  -4  -1 48286.8 914.987   1
  -4  -1   1 33601.8 888.136   1
   1  -4   1 48110.7 912.972   1
   4   1   1 39357.2 898.657   1
   1  -4   3 39110.1 834.512   1
   1  -4  -3 36281.7 836.375   1
  -4  -1   3 32101.4 804.626   1
   4   1  -3 41446.3 806.820   1
  -1   4  -3 33828.5 829.476   1
  -1   4   3 32315.8 831.414   1
   4   1   3 40590.7 835.963   1
  -4  -1  -3 38358.3 834.784   1
  -1   4   5 25822.0 536.706   1
   1  -4   5 26649.9 534.312   1
   4   1   5 17159.2 523.138   1
  -4  -1  -5 17305.7 523.620   1
  -1   4  -5 23309.4 529.509   1
   1  -4  -5 28461.7 542.336   1
  -1   4  -7 10123.9 285.526   1
   4   1   7 15945.8 311.608   1
  -1   4   7 8564.96 286.730   1
   1  -4   7 11025.4 288.719   1
  -4  -1  -7 13576.7 304.161   1
  -4  -1  -9 2414.94 98.6740   1
  -4  -1   9 2151.43 62.6815   1
   1  -4   9 3497.59 106.136   1
   4   1   9 2663.37 101.894   1
  -1   4  -9 3321.64 103.248   1
   4   1  -9 1972.06 62.0094   1
   1  -4 -11 842.529 60.6862   1
  -1   4  11 583.291 55.5402   1
  -1   4 -11 799.877 57.5730   1
   4   1  11 685.858 61.6079   1
  -4  -1 -11 1035.66 67.9566   1
   1  -4  11 932.223 61.2217   1
  -4  -1 -13 117.411 41.1237   1
  -1   4  13 100.207 40.9243   1
   4   1  13 146.694 42.9224   1
   1  -4 -13 123.687 40.9526   1
   1  -4  15 4.19704 35.6935   1
  -1   4 -15 9.57892 33.7693   1
   4   1  15 19.6653 38.2838   1
  -4  -1 -15 22.6300 36.4118   1
   4   1  17 0.58983 34.2703   1
  -4  -1 -17 0.58938 30.5983   1
  -2   4   0 39063.0 951.768   1
   2  -4   0 45094.8 957.215   1
  -4  -2   2 2642.24 71.2782   1
   2  -4  -2 2366.69 93.9024   1
   4   2   2 2008.39 83.3849   1
   4   2  -2 2369.47 69.3147   1
  -2   4  -2 3403.37 102.620   1
  -2   4   2 3819.93 104.872   1
  -4  -2  -2 2204.87 85.0513   1
   2  -4   2 2706.55 96.5975   1
   2  -4  -4 66672.4 1256.50   1
   2  -4   4 57099.6 1249.12   1
   4   2   4 50214.3 1243.89   1
  -4  -2  -4 52265.6 1245.66   1
  -2   4  -4 49593.0 1243.68   1
  -2   4   4 58049.9 1248.56   1
   2  -4  -6 8148.77 222.801   1
  -4  -2  -6 9374.97 228.699   1
  -2   4   6 6126.49 211.348   1
   4   2   6 9895.56 230.532   1
   4   2   8 51182.9 1197.90   1
  -2   4   8 55271.7 1198.58   1
  -4  -2  -8 50504.6 1196.93   1
   2  -4 -10 8449.01 203.626   1
  -4  -2 -10 7566.75 202.940   1
   4   2  10 5480.89 188.828   1
  -2   4  10 6394.47 194.140   1
  -2   4 -10 5612.14 186.839   1
   2  -4  10 6435.73 192.477   1
  -4  -2 -12 10780.4 241.406   1
   4   2  12 11326.4 243.682   1
   4   2 -12 6406.95 181.977   1
  -2   4 -14 808.013 59.4496   1
  -2   4  14 903.305 63.2573   1
   2  -4  14 761.051 60.3055   1
   2  -4 -14 1009.01 65.1043   1
   4   2  16 799.478 64.1685   1
  -4  -2 -16 1184.54 69.8302   1
  -4  -2 -18 85.8579 34.4829   1
   4   2  18 42.9480 35.7968   1
  -3   4   1 14208.5 414.802   1
  -4  -3  -1 22046.3 420.865   1
  -3   4  -1 14350.3 415.712   1
   3  -4  -1 17486.1 423.253   1
   3  -4   1 17453.1 422.359   1
   4   3   1 19766.8 416.695   1
   4   3  -3 9836.38 241.777   1
  -4  -3  -3 11049.8 269.922   1
  -4  -3   3 11098.9 243.213   1
  -3   4  -3 9400.04 267.586   1
  -3   4   3 10360.5 270.023   1
   3  -4  -3 11958.3 275.474   1
   3  -4   3 11435.6 274.378   1
   4   3   3 9523.66 264.553   1
  -3   4   5 10038.0 303.451   1
  -3   4  -5 10247.7 306.348   1
   4   3   5 18055.7 332.272   1
   3  -4  -5 11148.6 309.786   1
  -4  -3  -5 18341.6 334.129   1
   3  -4   5 10618.9 307.695   1
   4   3   7 2283.91 107.099   1
  -3   4  -7 2712.18 107.718   1
   3  -4  -7 4114.84 119.697   1
  -4  -3  -7 2617.39 108.914   1
  -3   4   7 3617.25 115.113   1
   3  -4   7 3324.52 113.483   1
  -3   4   9 983.569 65.4904   1
  -3   4  -9 1483.16 75.2031   1
   4   3  11 179.123 45.8455   1
  -3   4  11 304.233 43.3063   1
  -4  -3 -11 217.285 45.1700   1
   3  -4  11 200.853 43.3864   1
  -3   4 -11 137.689 40.3985   1
   3  -4 -11 398.271 45.4416   1
   3  -4 -13 62.9355 37.9852   1
   4   3  13 37.1104 39.4975   1
   3  -4  13 16.4556 37.4815   1
  -3   4 -13 63.9945 36.6002   1
  -3   4  13 50.9891 37.0708   1
  -4  -3 -13 14.7208 39.2686   1
  -4  -3 -15 8.28394 36.7928   1
   3  -4  15 7.28942 36.4089   1
  -3   4 -15 13.9553 32.9895   1
   4   3  15 14.2083 39.0172   1
  -4  -3 -17 7.50525 32.9247   1
   4   3  17 21.9448 34.5928   1
  -4   4   0 240847. 6776.62   1
   4  -4   0 301569. 6784.53   1
  -4  -4   0 365665. 6780.45   1
   4   4   0 327415. 6776.27   1
  -4  -4  -2 214709. 3743.47   1
  -4   4   2 128813. 3726.41   1
   4   4   2 192201. 3738.87   1
   4  -4  -2 158678. 3733.94   1
   4   4   4 199597. 4463.25   1
   4  -4   4 179370. 4459.20   1
  -4  -4  -4 211739. 4465.49   1
  -4  -4   4 223737. 4436.44   1
  -4   4  -4 149776. 4452.22   1
   4   4  -4 216504. 4434.28   1
   4  -4  -4 205245. 4464.71   1
  -4   4   4 192101. 4460.41   1
   4  -4   6 56917.0 1407.02   1
   4   4   6 71457.8 1419.80   1
  -4  -4  -6 77307.0 1424.87   1
  -4   4  -6 50465.9 1401.73   1
  -4  -4  -8 71570.1 1598.39   1
  -4   4   8 77539.9 1595.10   1
   4  -4  -8 92133.5 1604.95   1
   4  -4   8 66335.1 1593.04   1
   4   4   8 63935.8 1591.84   1
  -4   4  -8 57484.8 1586.06   1
  -4   4  10 14010.7 348.965   1
   4   4  10 11992.8 347.937   1
   4  -4 -10 17327.4 358.773   1
  -4   4 -10 10755.0 341.333   1
  -4  -4 -10 14942.1 359.377   1
   4   4  12 13450.7 364.075   1
  -4   4 -12 11684.6 357.974   1
  -4   4  12 16387.5 372.340   1
  -4  -4 -12 12175.7 360.137   1
   4  -4 -12 18667.2 379.049   1
   4  -4  12 14060.8 370.664   1
   4   4  14 1271.30 76.1315   1
   4  -4  14 1401.46 76.7812   1
  -4   4 -14 1259.14 73.0764   1
  -4  -4 -14 1267.87 75.4960   1
   4  -4  16 1105.53 69.5467   1
  -4   4 -16 1100.77 68.0607   1
  -4  -4 -18 138.821 37.2863   1
   4   4  18 93.1456 37.8411   1
   5  -4  -1 501.557 48.6315   1
  -5   4   1 397.758 44.3914   1
  -5   4  -1 453.283 46.6427   1
   4   5   1 564.314 44.7378   1
   4   5  -1 628.800 42.2749   1
  -4  -5  -1 705.513 47.6552   1
  -4  -5   1 708.162 44.8240   1
   5  -4   1 535.235 49.4873   1
   4   5   3 6570.66 170.046   1
   5  -4   3 2593.40 144.668   1
  -5   4  -3 2879.14 147.271   1
  -4  -5  -3 7545.89 175.589   1
   4   5  -3 6768.60 150.537   1
  -4  -5   3 8710.88 158.379   1
  -5   4  -5 330.419 49.3031   1
   5  -4   5 291.786 48.8962   1
   4   5  -5 724.579 33.9809   1
  -4  -5   5 834.614 35.4105   1
   4   5   5 592.974 56.1014   1
  -4  -5  -5 727.704 58.2574   1
  -5   4   5 492.951 47.9960   1
   5  -4  -5 429.586 47.5027   1
  -4  -5   7 2775.07 64.9086   1
   4   5   7 3293.01 110.501   1
   5  -4   7 1129.06 82.4640   1
  -5   4   7 1351.47 82.7688   1
  -4  -5  -7 4181.67 119.062   1
  -5   4  -7 1443.08 86.0163   1
   5  -4  -7 1244.92 83.6117   1
   4   5  -7 2391.46 63.4810   1
  -4  -5  -9 7.35538 38.5208   1
  -5   4   9 8.47194 30.3795   1
   5  -4   9 38.3466 40.7197   1
  -5   4  -9 8.45567 38.0296   1
   5  -4  -9-9.95452 30.2693   1
   4   5   9 11.3147 36.9997   1
  -5   4  11 70.2064 35.3525   1
  -5   4 -11 96.9551 38.2082   1
   5  -4  11 37.4003 40.0032   1
   5  -4 -11 69.0615 33.3416   1
  -4  -5 -13 6.49210 33.8629   1
   4   5  13 13.5775 36.4755   1
   5  -4  13 10.1303 37.2014   1
  -5   4 -13 16.6739 33.9140   1
   5  -4  15 13.0938 38.2145   1
  -5   4 -15 1.78436 32.9371   1
  -4  -5 -15 3.48481 35.3633   1
   5  -4  17 13.3249 35.1274   1
   4   5  17 13.3237 33.4374   1
  -4  -5 -17 9.98880 30.4636   1
  -5   4 -17-4.05228 30.3491   1
  -3  -5   0 261529. 4773.56   1
   5  -3   0 226853. 4772.45   1
  -5   3   0 172336. 4762.92   1
   3   5   2 132006. 2948.58   1
  -3  -5  -2 153558. 2956.19   1
  -5   3   2 97681.4 2936.61   1
  -3  -5   2 162864. 2945.26   1
   3   5  -2 137580. 2939.56   1
   5  -3  -2 126074. 2945.02   1
   5  -3   4 147096. 3561.67   1
  -3  -5  -4 175210. 3570.12   1
   5  -3  -4 179525. 3562.60   1
  -3  -5   4 201441. 3552.26   1
  -5   3   4 150336. 3555.19   1
   3   5   4 153088. 3563.37   1
  -5   3  -4 113282. 3551.83   1
   3   5  -4 167686. 3546.49   1
   5  -3  -6 65420.8 1338.35   1
  -3  -5   6 72478.6 1321.71   1
   3   5  -6 63171.1 1317.72   1
  -3  -5  -6 63219.5 1347.00   1
  -5   3  -6 41090.7 1327.29   1
  -5   3   6 56718.2 1330.77   1
   3   5   6 57474.3 1342.43   1
   5  -3   6 48630.0 1333.70   1
  -5   3   8 70205.5 1588.70   1
   5  -3  -8 81334.6 1595.74   1
   3   5  -8 62424.8 1566.83   1
  -3  -5   8 74607.4 1571.44   1
   5  -3 -10 17924.3 369.154   1
  -3  -5  10 14925.6 341.630   1
   5  -3  10 15667.6 376.912   1
  -3  -5 -10 14895.4 372.908   1
   3   5 -10 12373.6 336.808   1
  -5   3 -10 13109.3 365.149   1
  -5   3  10 15724.8 363.150   1
   3   5  10 12117.1 362.167   1
   5  -3 -12 17843.8 387.520   1
  -5   3  12 16728.1 384.067   1
  -3  -5 -12 12681.7 378.213   1
   3   5  12 13214.1 380.010   1
  -5   3 -14 1657.20 82.6471   1
  -3  -5 -14 1491.73 81.1160   1
   5  -3  14 1686.39 84.5369   1
   5  -3  16 1041.45 68.9049   1
  -5   3 -16 1236.68 70.7443   1
   3   5  18 118.796 37.1082   1
  -3  -5 -18 135.848 35.1665   1
   2   5  -1 6876.60 145.228   1
  -2  -5   1 7931.38 150.814   1
   2   5   1 7160.65 151.911   1
  -5   2   1 3862.85 130.852   1
  -5   2  -1 3195.91 130.018   1
   5  -2   1 2529.62 124.980   1
   5  -2  -1 3110.55 126.332   1
  -2  -5  -1 7578.65 154.801   1
  -5   2   3 79.2950 28.3450   1
  -5   2  -3 19.3593 34.4035   1
  -2  -5   3 41.2186 28.0086   1
   5  -2  -3 95.9771 27.8812   1
   5  -2   3 45.8568 36.0021   1
  -2  -5  -3 67.6416 35.5372   1
   2   5   3 74.7095 33.5505   1
   2   5  -3 58.2517 27.9260   1
   2   5  -5 11483.4 226.316   1
   5  -2   5 4750.22 216.854   1
  -5   2   5 7893.64 218.081   1
  -2  -5   5 14216.3 234.778   1
   2   5   5 12330.2 250.380   1
   5  -2  -5 6681.90 215.095   1
  -2  -5  -5 13938.4 256.356   1
  -5   2  -5 5246.50 218.388   1
  -5   2  -7 3.04818 35.7949   1
  -2  -5   7 66.2893 26.4334   1
   5  -2   7 3.04833 37.3251   1
   2   5  -7 91.2385 25.9947   1
  -2  -5  -7 1.52353 39.0848   1
  -5   2   7 21.0225 26.0729   1
   2   5   7 16.7589 38.1853   1
   5  -2  -7 19.6488 25.8054   1
   2   5  -9 2377.35 79.5380   1
  -5   2   9 1455.03 71.8450   1
   5  -2  -9 1785.88 76.6285   1
  -2  -5   9 2718.62 82.5921   1
   2   5 -11 180.360 31.9653   1
  -5   2 -11 138.798 43.5596   1
  -5   2  11 151.286 32.6157   1
   2   5  11 80.9582 43.3218   1
  -2  -5  11 197.158 33.8069   1
  -2  -5 -11 307.070 48.3108   1
   5  -2  11 86.0672 46.8896   1
   5  -2 -11 194.855 34.6550   1
  -5   2 -13 112.314 38.8213   1
   5  -2  13 49.6826 40.9166   1
  -2  -5 -15 22.5656 35.5072   1
   5  -2  15 0.59545 37.6571   1
   2   5  15 36.8417 38.8650   1
  -5   2 -15 24.9954 35.5186   1
  -2  -5 -17 14.5138 31.8732   1
   5  -2  17 28.5703 36.4851   1
  -5   2 -17 32.6253 33.5193   1
   2   5  17 15.6869 35.2728   1
   5  -1   0 106991. 2474.63   1
   1   5   0 119636. 2481.42   1
  -5   1   0 93916.5 2471.03   1
  -1  -5   0 135342. 2486.97   1
   1   5   2 43780.5 844.749   1
   5  -1   2 26500.4 825.090   1
  -5   1   2 33792.4 823.862   1
  -5   1  -2 28250.0 827.620   1
   1   5  -2 43045.9 837.996   1
  -1  -5   2 50807.6 844.911   1
  -1  -5  -2 51270.9 852.243   1
   5  -1  -2 31780.2 822.561   1
   1   5  -4 110490. 2492.00   1
   5  -1  -4 117973. 2485.22   1
  -5   1   4 97834.2 2480.21   1
  -1  -5   4 132134. 2499.00   1
   1   5  -6 35504.1 667.086   1
  -5   1   6 22202.3 643.811   1
  -1  -5  -6 43971.7 695.707   1
   1   5   6 38193.6 687.359   1
   5  -1  -6 26768.6 648.391   1
  -5   1  -6 21070.8 659.740   1
  -1  -5   6 42611.9 676.082   1
   5  -1   6 20638.4 659.100   1
   5  -1  -8 56816.3 1236.64   1
  -1  -5   8 67459.2 1257.78   1
   5  -1   8 45381.1 1252.01   1
   1   5  -8 56978.5 1250.28   1
  -5   1  -8 44266.4 1251.07   1
   1   5   8 65795.3 1270.39   1
  -5   1   8 47324.7 1231.08   1
  -1  -5  -8 75772.4 1279.45   1
   5  -1  10 7348.70 256.167   1
   1   5  10 10388.6 270.870   1
   1   5 -10 12108.3 264.164   1
   5  -1 -10 8563.04 241.382   1
  -1  -5 -10 16715.3 297.713   1
  -1  -5  10 13771.2 269.755   1
  -5   1  10 7582.95 237.594   1
  -5   1 -10 8297.22 260.587   1
   5  -1  12 10611.3 301.348   1
   1   5  12 10510.4 301.596   1
  -1  -5  12 13762.8 302.812   1
   5  -1 -12 11836.9 284.318   1
  -5   1 -12 10767.9 300.603   1
  -5   1  12 10691.4 281.681   1
   1   5 -12 10626.1 290.828   1
   1   5  14 1049.76 68.4781   1
   5  -1  14 695.567 62.0080   1
  -5   1 -14 962.911 67.0923   1
  -1  -5 -14 1106.21 69.0714   1
  -1  -5 -16 1155.98 69.1964   1
  -5   1 -16 900.920 62.6352   1
   1   5  16 1091.09 69.1494   1
   5  -1  16 666.077 59.8410   1
   0   5   1 2359.48 85.4694   1
   0   5  -1 2410.49 83.8181   1
  -5   0  -1 1702.94 73.0511   1
   5   0  -1 1364.81 66.1224   1
   5   0   1 1412.78 70.7255   1
  -5   0   1 1918.04 69.3814   1
   0  -5  -1 2428.21 86.3888   1
   0  -5   1 2372.10 85.4624   1
   5   0   3 9681.10 292.365   1
   0   5   3 13984.2 303.210   1
   0  -5   3 13941.1 301.935   1
   0   5  -3 13642.2 297.312   1
   5   0  -3 9291.25 270.797   1
  -5   0  -3 9615.32 291.289   1
  -5   0   3 12093.1 274.814   1
   0  -5  -3 15033.6 306.581   1
   5   0  -5 22.2769 14.1210   1
   0   5  -5 219.158 33.2877   1
  -5   0   5 24.9050 14.1063   1
   5   0   5 187.855 37.5215   1
  -5   0  -5 140.048 36.8445   1
   0   5   5 253.933 40.2002   1
   0  -5  -5 302.787 41.3710   1
   0  -5   5 253.834 34.8195   1
   0   5  -7 7615.22 172.607   1
   5   0   7 6627.50 177.187   1
   5   0  -7 4550.39 132.928   1
   0  -5  -7 7774.93 189.966   1
  -5   0   7 4694.09 132.472   1
   0   5   7 6703.54 186.675   1
  -5   0  -7 5567.20 169.924   1
   0  -5   7 8275.56 177.002   1
   0  -5   9 324.394 41.1420   1
  -5   0   9 251.606 19.7667   1
   0   5  -9 301.108 39.4114   1
   5   0  -9 179.184 19.6228   1
   0   5   9 241.156 48.0183   1
   0  -5  -9 378.769 49.2945   1
   5   0  11 567.792 58.8771   1
   0  -5 -11 852.000 62.1938   1
   0  -5  11 1114.84 64.0033   1
   0   5 -11 991.405 60.8442   1
   0   5  11 377.479 53.8725   1
  -5   0 -11 806.431 62.4240   1
   0   5 -13 171.073 35.9834   1
   5   0  13 66.5685 43.2182   1
  -5   0 -13 120.714 41.5360   1
   0  -5 -13 65.3777 39.5810   1
   0   5  13 60.7038 40.6763   1
   0  -5  13 183.406 39.6787   1
   0  -5 -15 18.0719 36.8528   1
   0   5  15-0.60275 36.9177   1
  -5   0 -17 38.8384 34.0163   1
   5   0  17 44.0857 37.7075   1
   0   5  17 13.8255 35.9460   1
   0  -5 -17 29.4280 34.3255   1
   1  -5   0 127269. 2507.20   1
  -1   5   0 118345. 2502.66   1
  -5  -1   0 100270. 2485.42   1
  -5  -1  -2 32544.4 807.710   1
   5   1   2 33676.3 807.480   1
  -1   5  -2 32733.1 806.323   1
   5   1  -2 35052.0 790.687   1
  -5  -1   2 35141.5 789.075   1
   1  -5  -2 42749.5 820.688   1
   1  -5   2 35317.8 809.143   1
  -1   5   2 35411.4 813.237   1
  -1   5  -4 98313.3 1650.57   1
  -5  -1   4 62339.9 1601.17   1
  -5  -1  -4 96383.0 1651.70   1
   5   1   4 100165. 1653.75   1
   1  -5   4 115443. 1660.54   1
   5   1  -4 69408.5 1602.71   1
   1  -5  -6 26162.1 662.553   1
  -5  -1  -6 30562.6 668.984   1
   5   1   6 34463.5 675.459   1
  -1   5   6 23358.1 659.067   1
   1  -5   8 56667.1 1294.32   1
  -1   5  -8 50358.9 1288.00   1
  -5  -1  -8 53974.1 1296.83   1
   5   1   8 58820.8 1301.14   1
  -1   5   8 55872.4 1296.24   1
   1  -5  -8 69273.6 1308.31   1
  -5  -1 -10 11699.1 284.957   1
   1  -5  10 10086.9 271.383   1
  -1   5 -10 8487.42 264.429   1
   5   1  10 10811.1 279.981   1
   1  -5 -12 15982.9 332.455   1
   5   1  12 10486.7 310.726   1
   1  -5  12 10702.7 309.772   1
  -1   5  12 14381.5 326.267   1
  -1   5 -12 10875.6 309.409   1
  -5  -1 -12 10479.0 309.847   1
  -5  -1 -14 865.259 65.7930   1
   1  -5 -14 1079.10 69.0527   1
   1  -5  14 1034.60 65.3554   1
   5   1  14 807.574 65.5830   1
  -1   5  14 978.926 66.6751   1
  -1   5 -14 822.092 58.9049   1
  -5  -1 -16 1099.20 67.9021   1
   5   1  16 755.014 62.8204   1
   5   1  18 28.6484 34.3475   1
  -5  -1 -18 87.0104 34.0803   1
  -5  -2  -1 5584.50 129.015   1
  -2   5  -1 3505.69 125.811   1
  -2   5   1 3374.19 124.868   1
   2  -5  -1 3518.75 123.119   1
   2  -5   1 3562.55 124.468   1
   2  -5   3 66.3981 36.7833   1
  -5  -2  -3 41.7678 31.5992   1
   5   2  -3 47.0186 12.4041   1
  -2   5  -3 54.1914 34.3695   1
  -5  -2   3 27.7057 11.2749   1
   5   2   3 24.9664 30.1629   1
   2  -5  -5 5299.14 203.227   1
   2  -5   5 6900.65 207.290   1
  -2   5   5 6660.75 212.198   1
   5   2   5 11692.8 229.946   1
  -5  -2  -5 9581.05 222.547   1
  -2   5  -5 7320.30 207.910   1
  -2   5   7 1.95060 35.8037   1
   2  -5  -7 1.94937 35.8398   1
   5   2   7-2.02123 37.9867   1
  -2   5  -7 10.0334 35.2654   1
  -5  -2  -7-14.6585 37.7901   1
  -5  -2  -9 2358.11 95.9313   1
   5   2   9 1923.02 88.7987   1
  -2   5  -9 1520.65 81.8009   1
  -2   5   9 1452.96 82.0065   1
   2  -5   9 1541.12 85.0925   1
   2  -5  -9 1360.15 84.9478   1
  -5  -2 -11 147.783 45.6841   1
  -2   5  11 117.028 42.4659   1
   2  -5 -11 112.440 43.4555   1
   5   2  11 91.4420 43.1571   1
   2  -5  13 95.1047 39.6878   1
  -5  -2 -13 34.7940 38.5148   1
   5   2  13 17.6972 40.0719   1
   2  -5 -13 77.8031 40.2491   1
  -2   5  13 93.8225 40.3514   1
  -2   5 -13 70.9472 35.6648   1
   2  -5  15 36.8087 38.0828   1
  -2   5 -15 28.8011 33.7651   1
   2  -5 -15 7.93884 34.8517   1
   5   2  15 37.1150 39.8425   1
  -2   5  15-4.89166 35.9224   1
  -5  -2 -17 29.0965 33.3656   1
   5   2  17-2.28334 33.7913   1
   5   3   0 217324. 4893.29   1
  -5  -3   0 226902. 4895.07   1
  -3   5  -2 90401.5 2582.95   1
   5   3  -2 124388. 2569.04   1
  -5  -3   2 123875. 2569.20   1
   3  -5   2 116826. 2592.62   1
   5   3   4 146559. 3179.79   1
  -5  -3  -4 149061. 3181.18   1
   3  -5   4 151667. 3180.22   1
  -3   5  -4 123655. 3171.47   1
  -3   5   4 129729. 3176.27   1
   3  -5  -4 164929. 3187.64   1
  -3   5   6 49817.5 1208.36   1
   5   3   6 55299.3 1212.50   1
  -3   5  -6 46695.7 1202.70   1
  -5  -3  -6 54581.8 1212.71   1
   3  -5  -6 64536.7 1221.33   1
   3  -5   6 49957.5 1205.55   1
   3  -5   8 71614.6 1604.05   1
  -3   5  -8 61371.0 1595.69   1
  -3   5   8 70987.3 1602.63   1
   3  -5  -8 82042.8 1612.99   1
   3  -5 -10 20858.9 402.781   1
   3  -5  10 15147.6 387.696   1
  -5  -3 -10 14664.8 385.615   1
   5   3  10 12876.4 379.385   1
  -3   5 -10 12070.6 375.438   1
  -3   5  10 17342.3 391.475   1
   5   3  12 13002.1 369.823   1
   3  -5  12 14915.8 378.332   1
  -3   5 -12 11870.1 365.887   1
  -3   5  12 18442.9 387.815   1
   3  -5 -12 21795.0 398.596   1
  -5  -3 -12 11431.5 364.177   1
   3  -5 -14 2440.66 99.0659   1
  -3   5  14 2188.90 96.0775   1
  -3   5 -14 1532.48 84.3764   1
   3  -5  14 1716.33 89.1622   1
   5   3  16 1097.45 68.8257   1
  -5  -3 -16 1059.52 67.3452   1
   5   3  18 82.8354 36.9756   1
  -5  -3 -18 93.1474 33.7899   1
  -4   5   1 416.129 47.9612   1
  -5  -4   1 664.427 40.4630   1
   5   4   1 549.818 42.7052   1
  -4   5  -1 465.964 47.3922   1
   5   4  -1 601.104 38.8745   1
   4  -5   1 541.286 50.1522   1
  -5  -4  -1 571.225 44.9327   1
   4  -5  -1 504.854 49.9995   1
   4  -5   3 2784.93 130.546   1
  -4   5  -3 2742.90 131.183   1
  -5  -4   3 7088.98 125.865   1
  -4   5   3 3011.13 130.865   1
   4  -5  -3 2688.57 130.997   1
   5   4  -3 6485.38 123.801   1
   5   4   5 683.157 54.2121   1
  -4   5  -5 340.977 46.1610   1
  -5  -4  -5 672.265 55.3896   1
   4  -5   5 343.081 47.6900   1
   5   4   7 3439.10 107.784   1
  -4   5  -7 1579.72 83.6469   1
  -5  -4  -7 3703.64 112.714   1
   4  -5   7 1322.93 84.4575   1
  -4   5   7 1310.04 78.9895   1
   4  -5  -7 1482.34 82.3733   1
   4  -5   9 1.12002 38.8821   1
  -5  -4  -9 6.78770 37.4301   1
   4  -5  -9 13.8172 34.4673   1
   5   4   9 3.39321 35.9790   1
  -4   5   9-1.06401 35.2398   1
  -4   5  -9-2.23871 35.4506   1
  -4   5 -11 67.0185 38.5198   1
   4  -5 -11 68.2715 37.8752   1
  -4   5  11 41.8052 38.4214   1
   4  -5  11 16.3298 39.7200   1
   4  -5  13 2.99592 36.1986   1
  -4   5 -13-2.99324 33.0789   1
   4  -5 -13 6.55583 35.0555   1
   5   4  13-6.48855 35.6788   1
  -5  -4 -13 2.94886 34.6458   1
  -4   5  13 2.98326 36.2848   1
  -5  -4 -15 9.84951 33.7515   1
  -4   5 -15-1.20762 31.2966   1
   5   4  15 27.2394 36.6496   1
   4  -5  15-4.83449 35.0659   1
  -5  -4 -17 12.1524 31.1791   1
   5   4  17 12.7092 33.6855   1
   5   5   0 9652.41 236.600   1
  -5  -5   0 10762.6 240.888   1
  -5   5   0 6464.24 232.145   1
   5  -5   0 8972.00 243.216   1
  -5   5   2 5170.06 195.364   1
  -5   5  -2 4855.02 193.688   1
   5   5  -2 11518.8 204.357   1
   5  -5   2 5184.08 194.896   1
  -5  -5   2 12976.3 209.569   1
   5  -5  -2 5838.39 197.376   1
  -5   5   4 10217.3 308.533   1
   5  -5   4 11766.1 314.876   1
  -5   5  -4 9891.63 307.327   1
  -5  -5  -4 16596.7 333.677   1
   5  -5  -4 14027.3 322.027   1
  -5   5   6 7505.74 276.116   1
   5   5   6 15675.9 312.189   1
  -5  -5  -6 16947.2 316.399   1
   5  -5  -6 8809.75 281.483   1
   5  -5   8 13843.4 372.594   1
  -5   5   8 12837.5 368.297   1
   5   5   8 15248.7 377.664   1
  -5   5  -8 11906.0 364.838   1
  -5  -5  -8 18696.2 389.572   1
   5  -5  -8 16760.1 380.811   1
   5  -5  10 4176.01 143.994   1
  -5   5 -10 4051.41 141.380   1
   5   5  12 5342.86 187.096   1
   5  -5  12 6317.10 192.119   1
  -5  -5 -12 5727.25 187.488   1
  -5   5  12 7222.86 196.460   1
   5  -5 -12 9306.85 209.930   1
  -5   5 -12 4680.88 179.599   1
   5  -5  14 995.350 67.9107   1
   5   5  14 942.807 66.1782   1
  -5  -5 -14 1019.94 67.4854   1
  -5   5 -14 928.376 64.2350   1
   5  -5  16 994.096 64.6806   1
  -5   5 -16 897.850 61.1668   1
   6  -5   1 1536.91 79.9018   1
  -6   5   1 1159.24 73.2886   1
  -6   5  -1 1127.91 74.9091   1
  -5  -6  -1 2244.90 85.2285   1
   5   6   1 1999.66 80.4786   1
  -5  -6   1 2268.35 80.4504   1
   5   6  -1 1912.49 75.0898   1
   6  -5  -1 1743.08 81.2851   1
   6  -5  -3 1413.30 74.4652   1
  -5  -6  -3 1770.17 80.0452   1
  -6   5  -3 950.661 69.5374   1
   5   6   3 1620.05 77.4236   1
   5   6  -3 1873.68 66.6607   1
  -5  -6   3 2128.78 70.4580   1
  -6   5   3 1003.87 68.1579   1
   6  -5   3 1302.44 75.4309   1
  -5  -6  -5 3536.08 113.318   1
   6  -5   5 1167.69 86.2494   1
   5   6   5 2941.48 108.461   1
  -6   5  -5 1288.55 87.1920   1
  -5  -6   5 3613.22 85.2180   1
   5   6  -5 3043.11 79.6487   1
   6  -5  -5 1641.92 87.8353   1
  -6   5   5 1439.12 86.2933   1
  -5  -6   7 238.112 14.1878   1
   6  -5   7 328.369 48.4072   1
   5   6   7 555.156 53.0058   1
   5   6  -7 233.723 14.1964   1
  -6   5  -7 340.326 46.1937   1
  -6   5   7 254.512 44.0954   1
   6  -5  -7 327.979 46.1685   1
  -5  -6  -7 716.731 58.4405   1
   6  -5  -9 128.818 41.0595   1
  -6   5   9 114.598 39.8092   1
   5   6  11 22.4145 37.2809   1
   6  -5  11 13.0286 36.0589   1
  -6   5 -11-13.0229 34.2594   1
  -5  -6 -11 44.8346 38.9398   1
  -6   5  11 13.3779 33.1261   1
  -5  -6 -13 8.14824 34.7981   1
   6  -5  13-17.1248 37.1142   1
   5   6  13 19.7893 34.8853   1
  -6   5 -13 15.3445 33.7702   1
  -5  -6 -15 21.2591 32.9077   1
   6  -5  15 17.8766 35.9190   1
   5   6  15 6.71457 33.1229   1
  -6   5 -15 3.45914 32.0185   1
   6  -4   0 18963.8 416.543   1
  -4  -6   0 19212.6 411.781   1
  -6   4   0 12906.2 400.657   1
   4   6   0 16202.5 403.426   1
  -4  -6  -2 7712.13 182.878   1
   6  -4   2 5425.13 171.933   1
  -6   4   2 4504.03 162.819   1
   4   6  -2 6787.09 167.809   1
  -6   4  -2 4049.41 163.949   1
   4   6   2 6544.10 175.680   1
   6  -4  -2 6257.42 174.213   1
  -6   4   4 14578.4 449.082   1
   6  -4   4 18984.9 464.837   1
  -6   4  -4 13441.9 450.300   1
  -4  -6  -4 21960.4 471.001   1
   4   6   4 18950.5 462.885   1
   4   6  -4 20195.8 446.450   1
   6  -4  -4 21612.1 465.676   1
  -4  -6   4 22523.3 450.242   1
   6  -4   6 8387.47 284.986   1
  -4  -6   6 16180.5 281.157   1
   6  -4  -6 10843.4 290.091   1
  -6   4  -6 7902.63 283.334   1
   4   6  -6 13825.0 276.056   1
  -6   4   6 8246.15 279.880   1
  -4  -6  -8 21255.8 447.668   1
   6  -4   8 18267.9 439.043   1
  -6   4   8 15330.5 425.508   1
   4   6   8 17253.5 436.246   1
  -6   4  -8 14332.8 426.929   1
   6  -4  -8 19254.9 437.411   1
  -6   4  10 5967.74 193.603   1
   6  -4 -10 7627.19 204.325   1
   6  -4  12 7169.48 201.707   1
   4   6  12 6138.38 193.796   1
  -6   4 -12 5564.36 188.926   1
  -4  -6 -12 6636.06 195.646   1
   6  -4  14 1160.52 72.3510   1
   4   6  14 1166.29 72.9152   1
  -4  -6 -14 1268.79 73.8041   1
  -6   4 -14 1207.65 71.0944   1
   4   6  16 977.694 62.7973   1
  -4  -6 -16 854.894 59.6922   1
   6  -4  16 871.325 61.5077   1
  -6   4 -16 895.266 59.6857   1
   6  -3   1 11718.7 276.342   1
   3   6  -1 10262.7 264.381   1
  -6   3  -1 8034.79 262.646   1
  -3  -6   1 11541.4 268.587   1
   6  -3   3 9946.64 286.057   1
   6  -3  -3 11832.0 287.010   1
  -3  -6  -3 14351.2 303.261   1
   3   6  -3 12381.9 281.939   1
  -6   3  -3 7464.34 277.474   1
   3   6   3 12326.9 293.602   1
  -3  -6   3 14279.6 287.657   1
  -6   3   3 8630.22 275.931   1
   3   6  -5 5259.88 144.064   1
   6  -3  -5 6013.47 156.267   1
   3   6   5 4953.53 157.873   1
  -6   3  -5 3467.69 147.584   1
  -3  -6  -5 5767.46 164.663   1
  -3  -6   5 5881.17 147.575   1
  -6   3   5 4398.78 146.157   1
   6  -3   5 5239.94 160.393   1
   6  -3   7 2641.18 115.453   1
  -3  -6   7 5256.21 117.047   1
   3   6  -7 4508.73 112.142   1
   6  -3  -7 3183.03 114.253   1
  -6   3  -7 2362.44 112.712   1
  -6   3   7 2469.81 107.877   1
  -3  -6  -9 805.176 60.6772   1
   6  -3   9 909.886 62.6052   1
  -3  -6   9 754.765 42.9588   1
  -6   3  -9 581.005 54.3901   1
   3   6  -9 624.784 40.5152   1
   3   6   9 629.276 58.1660   1
   3   6  11 258.178 48.3405   1
  -6   3  11 175.851 36.8797   1
  -6   3 -11 170.239 40.8149   1
   6  -3  11 221.968 44.8977   1
   6  -3 -11 304.043 40.4935   1
  -3  -6 -11 347.903 49.6069   1
   3   6  13 51.3709 40.3706   1
  -3  -6 -13 57.2583 38.8025   1
   6  -3  15 21.0530 36.0939   1
  -6   3 -15 16.3708 32.4025   1
  -3  -6 -17 10.5066 30.4918   1
   6  -3  17 45.4982 36.5668   1
   3   6  17 1.10656 31.9802   1
  -6   3 -17 23.5752 31.5968   1
   2   6   0 194510. 4303.70   1
   6  -2   2 79602.7 2349.17   1
  -6   2   2 89876.6 2348.97   1
   6  -2  -2 97098.0 2350.30   1
  -2  -6   2 155044. 2372.79   1
  -6   2  -2 73323.3 2346.79   1
   2   6   2 132205. 2371.29   1
  -2  -6  -2 147028. 2377.74   1
   2   6  -2 127435. 2362.40   1
  -2  -6   4 162033. 2695.97   1
  -6   2   4 110787. 2678.94   1
   2   6  -4 134583. 2687.21   1
   6  -2   4 107822. 2690.31   1
   2   6   4 131726. 2700.21   1
  -6   2  -4 86549.4 2681.86   1
   6  -2  -4 127430. 2684.28   1
   6  -2   6 42040.1 1134.03   1
   6  -2  -6 48383.0 1123.39   1
  -2  -6  -6 57987.1 1152.99   1
   2   6  -6 55869.7 1129.07   1
  -6   2   6 44681.2 1120.44   1
  -6   2  -6 36916.9 1127.32   1
   2   6   6 52197.8 1146.14   1
  -2  -6   6 66957.5 1137.56   1
   2   6  -8 47738.0 1085.19   1
   6  -2   8 48240.4 1103.18   1
   2   6   8 44264.5 1098.46   1
  -2  -6  -8 53703.2 1108.63   1
   6  -2  -8 50838.2 1085.52   1
  -2  -6   8 55173.3 1090.97   1
  -6   2   8 43109.0 1079.57   1
  -6   2  -8 40632.3 1094.04   1
   6  -2  10 11667.5 319.283   1
  -2  -6  10 14393.7 312.800   1
   2   6 -10 12029.4 305.167   1
  -2  -6 -10 14847.5 331.711   1
  -6   2  10 11011.8 300.410   1
   2   6  10 9836.05 314.399   1
   6  -2 -10 12879.1 306.215   1
  -6   2 -10 10628.7 314.550   1
  -2  -6 -12 11903.1 295.729   1
   2   6  12 10549.1 290.058   1
   6  -2  12 11054.8 293.931   1
  -6   2 -12 9292.26 283.990   1
   6  -2  14 1554.89 80.3409   1
  -6   2 -14 1658.70 80.8348   1
   2   6  14 1184.96 75.0585   1
  -2  -6 -14 1493.02 79.5038   1
  -2  -6 -16 1087.77 67.4071   1
   6  -2  16 791.978 61.8465   1
   2   6  16 944.364 66.7400   1
  -6   2 -16 901.115 62.1694   1
   6  -1  -1 28577.5 600.243   1
  -1  -6   1 29024.6 606.975   1
  -6   1   1 20528.0 590.235   1
   6  -1   1 26299.3 601.839   1
   1   6  -1 25539.7 601.589   1
   6  -1   3 20204.7 460.848   1
  -6   1  -3 13891.0 447.543   1
  -1  -6  -3 19906.2 461.469   1
   1   6   3 18311.8 457.655   1
  -1  -6   3 21139.8 458.555   1
  -6   1   3 17103.7 440.804   1
   1   6  -3 18708.0 452.895   1
   6  -1  -3 23357.2 451.038   1
   1   6  -5 15517.3 326.914   1
   6  -1   5 11346.4 324.238   1
   6  -1  -5 14086.7 310.906   1
   1   6   5 15294.0 338.987   1
  -6   1  -5 8358.47 314.487   1
  -1  -6  -5 16208.7 342.264   1
  -1  -6   5 17752.4 333.390   1
  -6   1   5 10033.5 302.319   1
   1   6  -7 5141.04 155.551   1
  -1  -6  -7 5760.20 170.008   1
   6  -1  -7 5493.86 143.562   1
   6  -1   7 7021.16 178.140   1
   1   6   7 4619.98 161.452   1
  -1  -6   7 5879.08 161.226   1
  -6   1   7 4854.47 140.415   1
  -6   1  -7 4655.02 161.629   1
  -6   1  -9 1516.83 82.0121   1
   6  -1   9 1831.21 86.4036   1
   6  -1  -9 1979.03 66.1818   1
  -6   1   9 1296.21 59.8789   1
   1   6   9 2212.07 97.4999   1
  -1  -6  -9 3026.11 105.641   1
  -1  -6  11 522.457 48.3430   1
   1   6 -11 471.734 45.7152   1
   6  -1  11 609.990 58.3849   1
  -1  -6 -11 572.627 56.0447   1
   1   6  11 350.125 54.2253   1
  -6   1 -11 495.814 53.3517   1
  -6   1 -13 137.193 39.9255   1
   6  -1  13 130.723 42.2132   1
   1   6  13 68.9100 39.6381   1
  -1  -6 -13 97.3672 40.9298   1
  -6   1 -15 28.7115 34.2228   1
   6  -1  15 9.96598 36.6597   1
   1   6  15-0.59338 36.2153   1
  -1  -6 -15-5.92956 33.2824   1
  -1  -6 -17-2.88438 31.5288   1
   1   6  17 24.8226 34.3650   1
   6   0   0 49329.1 968.809   1
  -6   0   0 36922.9 959.608   1
   0  -6  -2 14526.3 335.637   1
   0   6  -2 12927.2 327.313   1
   6   0   2 12868.6 326.314   1
   6   0  -2 15198.6 318.743   1
   0  -6   2 15315.9 334.831   1
  -6   0   2 11545.5 311.506   1
   0   6   2 12897.5 331.232   1
  -6   0  -2 10474.3 320.560   1
   0  -6  -4 53084.6 1119.84   1
   0  -6   4 56924.3 1116.52   1
   6   0   4 50932.2 1115.89   1
   0   6  -4 47738.2 1107.84   1
   0   6   4 46268.2 1113.53   1
  -6   0  -4 39952.3 1106.02   1
  -6   0  -6 16113.0 402.855   1
   0  -6  -6 23076.1 422.856   1
   6   0  -6 15110.9 366.823   1
   6   0   6 18452.5 409.706   1
   0   6   6 19912.4 413.191   1
  -6   0   6 14188.5 365.378   1
   0  -6   8 43900.7 530.900   1
   0   6  -8 38186.4 518.490   1
  -6   0   8 16722.1 440.694   1
   6   0  -8 19047.0 442.268   1
   0  -6  10 12832.1 310.395   1
   6   0  10 10521.1 306.680   1
   0   6 -10 10823.5 302.692   1
   0  -6 -10 15111.6 325.068   1
   0   6  10 11418.1 311.751   1
  -6   0 -10 10500.7 306.679   1
  -6   0 -12 9285.67 270.785   1
   0   6 -12 9403.04 267.528   1
   0  -6  12 10714.7 273.954   1
   6   0  12 10193.1 276.254   1
   0  -6 -14 1715.76 84.0080   1
   0   6  14 1460.81 80.3758   1
   0   6  16 851.364 64.7683   1
   6   0  16 740.394 60.0201   1
   0  -6 -16 1182.69 68.4808   1
  -6   0 -16 833.059 60.7544   1
   6   1   1 25330.2 556.953   1
  -1   6  -1 22795.9 559.960   1
  -1   6   1 22667.4 560.507   1
   1  -6  -1 26591.0 567.381   1
   1  -6   1 26809.1 567.422   1
   6   1  -1 26866.2 550.665   1
  -6  -1   1 20392.6 543.109   1
  -6  -1  -1 20097.7 549.376   1
   1  -6  -3 20901.8 471.146   1
   6   1  -3 22646.4 441.829   1
  -1   6  -3 17984.9 460.384   1
  -6  -1   3 15970.1 434.957   1
  -1   6   3 20052.7 468.201   1
   1  -6   3 19524.5 465.348   1
   1  -6  -5 11959.8 324.723   1
   1  -6   5 13297.4 324.131   1
  -6  -1  -5 12201.7 324.416   1
   6   1   5 15282.1 333.407   1
  -1   6   5 10915.4 320.175   1
   1  -6   7 6407.02 171.776   1
  -6  -1  -7 3736.67 157.732   1
  -1   6  -7 6010.96 168.068   1
   6   1   7 4673.12 164.806   1
  -1   6   7 6186.60 177.117   1
   1  -6  -7 6733.31 181.149   1
   1  -6   9 2262.29 92.8727   1
   6   1   9 2531.59 100.900   1
  -1   6  -9 1952.22 87.6040   1
   1  -6  -9 2345.89 98.9995   1
  -1   6   9 1704.26 91.6140   1
  -6  -1  -9 2218.86 97.5163   1
   1  -6  11 630.250 55.7550   1
   6   1  11 434.815 50.9254   1
  -1   6 -11 511.290 50.9244   1
  -1   6  11 794.285 62.2352   1
   1  -6 -11 930.813 64.2731   1
  -6  -1 -11 371.929 49.1881   1
   1  -6  13 201.982 41.8962   1
  -1   6 -13 139.404 38.4009   1
   1  -6 -13 122.909 40.9957   1
   6   1  13 83.8513 39.4003   1
  -6  -1 -13 92.0981 37.7139   1
  -1   6  13 99.1305 41.3950   1
   6   1  15 13.4150 38.7528   1
  -6  -1 -15 16.3266 35.3770   1
  -6  -2   0 148973. 3413.28   1
   6   2   0 164142. 3415.16   1
   2  -6   0 163813. 3429.18   1
  -2   6   0 140649. 3421.06   1
  -2   6  -2 93429.1 2196.05   1
  -6  -2  -2 105025. 2197.37   1
   6   2   2 110926. 2199.59   1
   2  -6  -2 91626.7 2198.58   1
  -2   6   2 88819.3 2196.73   1
   2  -6   2 99539.1 2198.66   1
  -6  -2  -4 107158. 2569.90   1
  -2   6  -4 105850. 2568.31   1
   6   2   4 117873. 2573.85   1
   2  -6  -4 132316. 2583.37   1
  -2   6   4 120119. 2578.62   1
   2  -6   4 113012. 2571.35   1
  -6  -2  -6 46948.5 1095.60   1
  -2   6  -6 42088.8 1088.09   1
   6   2   6 51643.3 1100.78   1
  -2   6   6 47177.2 1095.16   1
   2  -6  -6 51716.3 1100.00   1
   2  -6   8 50009.0 1114.89   1
   2  -6  -8 62089.7 1129.47   1
   6   2   8 43151.0 1109.44   1
  -2   6  -8 42824.7 1106.94   1
  -6  -2  -8 43866.2 1110.48   1
  -2   6   8 52961.7 1118.76   1
   2  -6  10 12845.5 321.468   1
   6   2  10 10685.0 314.793   1
   2  -6 -10 14751.9 332.275   1
  -2   6 -10 10636.4 312.454   1
  -2   6  10 12507.3 323.105   1
  -6  -2 -10 11648.0 319.088   1
   2  -6  12 10923.6 294.997   1
  -6  -2 -12 9047.37 288.203   1
   6   2  12 9729.94 290.755   1
  -2   6 -12 9056.34 286.346   1
  -2   6  12 13797.0 308.917   1
   2  -6 -12 15697.0 316.408   1
   2  -6  14 1734.89 85.1796   1
   2  -6 -14 2177.21 91.8673   1
  -6  -2 -14 1296.09 77.1349   1
   6   2  14 1103.23 74.6610   1
  -2   6 -14 1550.53 80.8578   1
  -2   6  14 1798.20 86.5010   1
   6   2  16 730.058 59.4787   1
  -3   6   1 8972.46 257.606   1
  -3   6  -1 8942.41 257.765   1
   6   3  -1 9818.51 243.534   1
   6   3   1 9475.42 251.787   1
  -6  -3  -1 9308.55 251.353   1
   3  -6   1 11484.8 268.765   1
  -6  -3   1 9219.06 242.145   1
   3  -6  -1 11691.3 270.003   1
  -6  -3   3 9537.72 238.433   1
   6   3  -3 11321.9 241.375   1
  -3   6  -3 8572.47 264.823   1
   6   3   3 11210.5 272.628   1
  -6  -3  -3 10426.2 271.231   1
   3  -6  -3 10517.8 273.090   1
   3  -6   3 10412.4 272.692   1
  -3   6   3 8709.93 264.466   1
   6   3   5 4726.42 149.186   1
  -3   6  -5 4177.99 144.352   1
   3  -6   5 4992.00 151.539   1
  -6  -3  -5 4340.73 147.729   1
   3  -6  -5 5124.61 155.603   1
  -3   6   5 4112.06 147.395   1
   3  -6   7 2766.36 111.635   1
  -3   6  -7 2546.76 106.519   1
   3  -6   9 844.362 60.2644   1
   6   3   9 559.888 56.7441   1
  -6  -3  -9 602.807 56.8590   1
  -3   6   9 810.912 64.6384   1
   3  -6  -9 793.495 65.1673   1
  -3   6  -9 642.830 54.3266   1
   3  -6  11 254.693 47.6416   1
   3  -6 -11 323.755 47.6018   1
  -6  -3 -11 264.058 48.8136   1
   6   3  11 252.890 47.0970   1
  -3   6 -11 222.349 42.9070   1
  -3   6  11 242.482 45.9008   1
   3  -6  13 54.9145 40.0255   1
  -3   6 -13 53.6602 36.3281   1
   3  -6 -13 34.9927 37.2481   1
  -3   6  13 41.0641 38.1796   1
   6   3  17 22.8965 35.4175   1
  -6  -3 -17 28.3484 32.6393   1
  -4   6   0 12717.1 368.566   1
   6   4   0 14558.7 361.970   1
  -6  -4   0 15144.7 364.720   1
   4  -6   0 17111.0 383.104   1
  -4   6  -2 4210.79 161.302   1
   4  -6  -2 5940.31 172.465   1
   6   4  -2 6133.88 150.589   1
  -6  -4   2 6131.87 150.507   1
  -4   6   2 4351.47 161.803   1
   4  -6   2 5578.78 170.433   1
   4  -6   4 19113.0 382.194   1
   6   4  -4 14358.8 326.518   1
   6   4   4 18413.0 376.942   1
  -4   6  -4 14790.6 368.256   1
  -6  -4  -4 18995.6 379.384   1
  -4   6   4 14674.0 368.920   1
  -6  -4   4 11688.9 324.854   1
   4  -6  -4 20839.1 388.653   1
   6   4   6 13685.7 308.786   1
  -6  -4  -6 13565.1 308.507   1
   4  -6  -6 10869.7 297.350   1
  -4   6   6 8266.42 286.818   1
   6   4   8 17513.3 433.216   1
   4  -6   8 18238.5 435.647   1
  -4   6  -8 14458.1 423.156   1
  -6  -4  -8 19029.5 438.413   1
   4  -6  10 6178.49 191.549   1
  -4   6 -10 5382.78 183.884   1
  -4   6  10 5898.68 191.677   1
   4  -6 -10 7577.49 204.347   1
   4  -6  12 7823.77 214.818   1
   6   4  12 6281.59 203.876   1
  -6  -4 -12 5828.52 200.833   1
  -4   6 -12 5527.34 198.802   1
  -4   6  12 7889.86 215.302   1
   4  -6 -12 10504.5 230.146   1
  -6  -4 -14 1143.09 70.0454   1
   6   4  14 1056.88 68.9423   1
  -6  -4 -16 824.404 58.8693   1
   6   4  16 643.600 56.8927   1
  -5   6   1 1349.22 75.9402   1
  -5   6  -1 1246.15 74.7432   1
   5  -6   1 1595.70 80.3695   1
   6   5  -1 1957.11 71.9406   1
  -6  -5   1 2019.54 73.6341   1
   5  -6  -1 1673.77 80.5373   1
  -5   6   3 980.014 69.4682   1
   6   5  -3 1892.60 62.4206   1
   6   5   3 1677.70 77.5441   1
  -6  -5   3 1793.97 62.0697   1
  -6  -5  -3 1788.60 80.1847   1
   5  -6  -3 1340.18 74.8416   1
   5  -6   5 1313.61 81.7326   1
  -5   6   5 1306.56 80.1313   1
  -5   6  -5 1408.61 81.3807   1
   6   5   5 3025.05 101.870   1
  -6  -5  -5 3047.29 104.043   1
   5  -6  -5 1495.90 81.8611   1
   6   5   7 558.405 54.4132   1
  -5   6  -7 364.228 51.5359   1
   5  -6   7 485.792 57.0162   1
  -6  -5  -7 640.899 56.8658   1
  -5   6   9 99.6096 41.3692   1
  -5   6  -9 175.918 42.3561   1
   5  -6   9 75.4306 44.0205   1
   5  -6  -9 131.517 42.3580   1
  -5   6  11 23.8104 36.9302   1
  -6  -5 -11 11.2149 36.4935   1
  -5   6 -11 15.4540 36.3643   1
   5  -6  11 16.6534 39.9698   1
   6   5  11 23.6055 35.6543   1
  -6  -5 -13-1.74552 36.5912   1
   5  -6  13 30.4321 37.0834   1
  -5   6 -13 19.0798 32.7568   1
   6   5  13 19.2001 36.0132   1
  -5   6 -15 9.40052 30.9249   1
   5  -6  15 14.1135 35.4405   1
   6   5  15 2.79283 32.3046   1
  -6  -5 -15-8.38040 31.5562   1
  -6  -6   0 97682.0 2127.63   1
   6   6   0 92320.2 2124.54   1
   6  -6   2 55604.9 1461.62   1
  -6   6  -2 41935.0 1449.50   1
  -6  -6   2 78271.7 1460.68   1
  -6  -6  -2 75807.0 1473.36   1
   6   6  -2 71960.8 1456.70   1
   6   6   2 72886.9 1470.52   1
   6  -6   4 49795.6 1219.07   1
  -6   6  -4 36612.4 1204.66   1
   6   6  -4 56562.3 1195.11   1
  -6  -6   4 59717.3 1197.20   1
  -6  -6  -4 60794.5 1228.48   1
   6   6   4 55627.8 1223.01   1
   6  -6   6 22809.3 565.882   1
   6   6   6 29054.2 579.482   1
  -6   6  -6 17449.6 553.235   1
  -6   6   6 18393.1 555.626   1
  -6  -6  -6 31117.7 585.589   1
   6  -6  -6 27266.2 575.543   1
   6  -6   8 18469.7 420.668   1
   6  -6  -8 21802.5 431.055   1
  -6   6  -8 12798.1 401.996   1
  -6   6   8 14558.9 408.040   1
   6   6  10 6739.96 199.931   1
  -6   6 -10 5298.02 189.229   1
   6  -6  10 7002.77 201.823   1
  -6  -6 -10 8009.82 209.379   1
  -6   6  10 4968.05 195.733   1
   6  -6 -10 8083.27 210.037   1
   6  -6  12 5313.10 163.834   1
   6   6  12 5128.94 162.874   1
  -6  -6 -12 5223.73 163.650   1
  -6   6 -12 4171.62 153.827   1
   6  -6  14 1677.17 80.5568   1
   6   6  14 1331.83 74.9524   1
  -6  -6 -14 1429.02 76.0880   1
  -6   6 -14 1154.77 70.9089   1
   6  -6  16 859.175 60.7238   1
  -6   6 -16 749.961 54.9209   1
  -6  -7  -1 341.135 42.9577   1
  -6  -7   1 376.083 41.4022   1
   7  -6   1 209.459 44.1092   1
   6   7   1 302.966 40.4098   1
   6   7  -1 313.944 38.1361   1
  -7   6   1 134.153 44.1572   1
  -7   6  -1 166.405 42.5200   1
   7  -6  -1 277.690 45.8556   1
  -7   6   3 511.508 54.5258   1
   7  -6   3 461.953 55.3437   1
  -6  -7   3 1303.14 57.8890   1
  -7   6  -3 476.476 56.7279   1
   6   7  -3 1140.70 54.4451   1
   7  -6  -3 530.426 54.1529   1
  -7   6   5 410.634 50.7265   1
  -7   6  -5 415.768 53.4604   1
   7  -6  -5 446.606 52.1499   1
   6   7   5 1076.87 67.1008   1
   7  -6   5 360.978 51.3668   1
  -6  -7  -5 1127.96 68.0162   1
   7  -6  -7 247.637 43.5873   1
   7  -6   7 167.092 47.0928   1
  -7   6  -7 217.685 45.6905   1
  -7   6   7 235.751 44.8364   1
  -7   6   9 16.1217 35.3726   1
  -7   6  -9 38.9383 36.4582   1
   7  -6   9 21.8332 38.8552   1
   7  -6  -9 37.5749 34.7044   1
  -7   6 -11 7.60187 32.0331   1
   7  -6  11 2.33982 35.1274   1
  -6  -7 -11 34.4839 39.4325   1
   6   7  11 47.9124 37.5188   1
  -6  -7 -13 7.31767 33.6130   1
  -7   6 -13-9.12671 33.5946   1
   7  -6  13 14.2659 37.8556   1
   6   7  13-8.44230 32.6150   1
   5   7   0 81635.7 1933.50   1
  -5  -7   0 91287.4 1940.53   1
  -7   5   2 42338.9 1239.97   1
  -7   5  -2 42170.6 1241.36   1
  -5  -7  -2 73761.2 1269.48   1
   5   7   2 66606.0 1261.74   1
   7  -5   2 55651.4 1254.54   1
   7  -5  -2 60764.7 1257.58   1
   7  -5   4 48460.8 1126.69   1
   7  -5  -4 57214.3 1132.87   1
  -7   5  -4 34732.4 1110.06   1
   5   7  -4 55556.0 1112.33   1
  -7   5   4 38814.5 1112.58   1
  -5  -7   4 63337.6 1119.95   1
  -7   5   6 18927.4 601.029   1
  -5  -7  -6 32487.5 632.244   1
   5   7   6 28266.0 623.483   1
  -7   5  -6 17747.1 600.649   1
   5   7  -6 27782.1 592.806   1
  -5  -7   6 30028.8 597.018   1
   7  -5  -6 28666.8 621.121   1
   7  -5   6 23969.3 614.583   1
   7  -5   8 19743.7 427.875   1
  -7   5  -8 14015.4 409.365   1
   7  -5  10 7522.51 215.521   1
   5   7  10 6715.99 210.872   1
  -7   5 -10 5891.85 204.707   1
  -5  -7 -10 8546.87 222.023   1
   7  -5 -10 7819.42 217.196   1
   7  -5  12 6307.88 177.070   1
   5   7  12 5222.62 168.418   1
  -7   5 -12 4295.00 160.927   1
  -5  -7 -12 5693.29 172.052   1
   7  -5  14 1665.42 80.4407   1
   5   7  14 1315.97 74.9138   1
  -5  -7 -14 1461.45 76.5563   1
  -7   5 -14 1252.87 72.6287   1
   7  -4  -1 1700.82 79.4297   1
   7  -4   1 1557.57 80.4681   1
  -4  -7  -1 2043.55 84.9134   1
  -7   4   1 1188.63 73.0491   1
   4   7   1 1823.05 80.6481   1
   4   7  -1 1772.23 75.8478   1
  -7   4   3 1043.31 67.9322   1
   4   7   3 1586.26 77.3489   1
   4   7  -3 1635.13 70.6130   1
  -4  -7   3 1823.90 73.4845   1
   7  -4  -3 1445.06 73.7133   1
  -4  -7  -3 1972.55 83.6553   1
  -7   4   5 1373.72 77.2391   1
   7  -4   5 1234.39 82.1242   1
   4   7   5 2532.01 101.493   1
  -4  -7  -5 2983.67 105.131   1
  -7   4  -5 1135.82 82.1671   1
   4   7  -5 2674.70 85.0486   1
  -4  -7   5 3053.15 88.0828   1
   7  -4  -5 1579.52 79.9378   1
  -7   4   7 396.093 47.0393   1
   7  -4   7 453.521 52.0099   1
   4   7  -7 650.488 41.9295   1
  -4  -7  -7 854.032 61.9284   1
   4   7   7 738.927 58.7697   1
  -7   4  -7 370.684 50.0648   1
  -4  -7   7 782.869 44.0829   1
   7  -4  -7 577.397 50.9073   1
  -4  -7  -9 471.955 54.7998   1
   7  -4   9 223.609 47.1775   1
   4   7   9 302.239 49.2274   1
  -7   4  -9 136.738 44.0894   1
  -7   4   9 166.813 41.1749   1
   7  -4  -9 195.472 41.1311   1
   7  -4  11 88.5357 40.8534   1
  -7   4 -11 68.4555 37.4254   1
  -4  -7 -11 49.5246 38.2029   1
   4   7  11 47.1637 37.3059   1
   7  -4  13 22.1736 36.2695   1
   4   7  13 27.2478 35.9317   1
  -4  -7 -13 31.3029 35.3448   1
  -7   4 -13 53.0800 33.7207   1
   7  -4  15 27.6377 37.4556   1
  -7   4 -15-9.02091 32.2399   1
   7  -3   0 17100.0 410.391   1
  -7   3   0 12614.2 398.734   1
  -3  -7   0 20428.5 417.045   1
   3   7   0 17183.2 409.152   1
   7  -3  -2 9492.36 262.094   1
  -7   3   2 8537.70 257.797   1
  -7   3  -2 7282.12 258.038   1
   3   7   2 15071.0 287.156   1
  -3  -7  -2 16648.1 293.668   1
   7  -3   2 8138.54 260.646   1
  -7   3   4 14212.2 440.072   1
  -3  -7   4 24631.8 459.332   1
  -3  -7  -4 23765.6 472.899   1
   7  -3   4 16323.7 452.269   1
  -7   3  -4 13208.4 444.520   1
   3   7   4 20688.1 463.438   1
   3   7  -4 20930.9 451.730   1
   7  -3  -4 19638.2 452.430   1
  -3  -7   6 18847.7 357.753   1
   7  -3   6 8068.23 336.818   1
   3   7  -6 16758.4 350.704   1
   3   7   6 18158.0 372.571   1
  -7   3  -6 8806.16 340.977   1
  -3  -7  -6 20682.2 379.802   1
   7  -3   8 13658.2 403.554   1
  -3  -7   8 19117.6 400.261   1
   3   7  -8 16998.8 395.175   1
  -3  -7  -8 20760.4 426.058   1
   3   7   8 16132.8 412.474   1
  -7   3  -8 11938.0 397.888   1
  -3  -7 -10 9307.57 212.509   1
   7  -3  10 5210.59 185.734   1
   3   7  10 6498.49 194.407   1
  -7   3 -10 5268.88 185.324   1
   7  -3  16 813.713 59.3936   1
   3   7  16 735.950 57.9814   1
  -3  -7 -16 783.680 56.9694   1
  -7   3 -16 716.280 55.5967   1
   7  -2   1 1267.42 65.2676   1
   2   7   1 1020.51 62.6100   1
   2   7  -1 1035.08 60.5572   1
  -7   2  -1 801.958 58.6190   1
  -2  -7   1 1174.06 63.1243   1
   7  -2   3 1722.69 89.4194   1
  -7   2   3 2269.16 87.2313   1
  -2  -7  -3 3849.79 114.246   1
  -7   2  -3 1448.61 85.8044   1
   2   7   3 3902.53 113.287   1
   7  -2  -3 2191.03 87.4308   1
  -7   2   5 511.717 42.3566   1
   7  -2   5 798.902 57.6283   1
   2   7   5 986.840 63.3969   1
  -2  -7  -5 986.186 64.8440   1
  -7   2  -5 588.398 54.3871   1
   7  -2  -5 726.981 47.0242   1
   2   7   7 1890.03 87.3805   1
   7  -2   7 980.918 70.8820   1
   7  -2  -7 989.827 57.8476   1
  -7   2   7 1246.84 60.9055   1
  -7   2  -7 1096.47 74.3473   1
  -2  -7  -7 2308.80 93.7316   1
   7  -2   9 155.236 41.8371   1
  -2  -7  -9 165.630 43.7341   1
  -7   2   9 152.659 28.5388   1
   2   7   9 89.1892 41.0621   1
  -7   2  -9 85.7323 40.3238   1
  -2  -7 -11 136.782 43.8374   1
  -7   2 -11 137.900 41.2009   1
   7  -2  11 95.4797 43.1345   1
   2   7  11 93.1688 42.2384   1
   7  -2  13 65.8276 42.1968   1
   2   7  13 37.7053 36.9978   1
  -7   2 -13 39.3686 38.6765   1
  -2  -7 -13 27.6798 35.2663   1
   2   7  15 21.2872 37.6282   1
   7  -2  15 15.4473 37.6690   1
  -7   2 -15 18.8740 34.6587   1
  -2  -7 -15 7.47562 35.5116   1
   2   7  17 2.73092 32.4529   1
   7  -1   0 74530.9 1667.35   1
  -1  -7   0 84346.0 1676.08   1
  -7   1   0 62495.3 1660.60   1
   1   7   0 78782.8 1673.83   1
  -1  -7  -2 56184.0 1058.58   1
   7  -1  -2 44606.4 1034.49   1
   1   7   2 53990.4 1056.70   1
   7  -1   2 40173.7 1039.04   1
  -1  -7   2 56765.2 1054.69   1
  -7   1   2 39672.7 1030.21   1
   1   7  -2 53961.0 1051.63   1
  -7   1  -2 32947.7 1032.34   1
   1   7  -4 64239.0 1379.82   1
  -7   1   4 54093.8 1361.44   1
   7  -1   4 61371.7 1385.81   1
  -7   1  -4 45991.1 1371.20   1
   1   7   4 60779.0 1383.71   1
  -1  -7  -4 67826.1 1390.59   1
  -1  -7   4 72803.0 1386.54   1
   7  -1  -4 67092.1 1368.67   1
  -1  -7   6 33593.7 688.057   1
   7  -1   6 32487.2 696.287   1
  -7   1  -6 26557.6 684.363   1
  -7   1   6 25477.1 660.893   1
   7  -1  -6 28299.3 664.045   1
   1   7  -6 31920.3 685.205   1
   1   7  -8 30505.9 678.351   1
   7  -1   8 35463.9 697.521   1
  -7   1  -8 28323.3 684.295   1
   1   7   8 27485.5 684.979   1
  -7   1   8 22628.3 648.628   1
  -1  -7  -8 34957.4 697.441   1
  -1  -7   8 34020.0 684.629   1
   1   7 -10 10525.9 295.650   1
   1   7  10 10138.5 302.612   1
  -1  -7 -10 13067.4 313.689   1
  -1  -7  10 12103.0 302.531   1
   7  -1  12 9155.61 243.277   1
  -1  -7 -12 9451.90 244.076   1
   1   7  12 7236.95 236.507   1
  -7   1 -12 7440.12 232.903   1
  -1  -7 -14 1703.57 83.7790   1
   7  -1  14 1709.19 84.3798   1
   1   7  14 1290.78 79.5425   1
  -7   1 -14 1862.52 85.3065   1
   1   7  16 840.254 62.9315   1
  -1  -7 -16 919.762 62.3270   1
   7   0   1 662.008 54.3364   1
   7   0  -1 476.156 46.6963   1
   0   7   1 1450.13 74.0157   1
   0  -7  -1 507.588 58.3470   1
   0   7  -1 1404.06 68.9146   1
  -7   0   1 935.066 54.3507   1
  -7   0  -1 889.698 57.4816   1
   0  -7   1 440.165 52.0667   1
   0  -7  -3 14.1747 37.6932   1
  -7   0  -3 3.77879 34.0503   1
   7   0  -3 204.078 27.5046   1
   0   7   3 20.7511 36.4325   1
  -7   0   3 205.993 27.3769   1
   7   0   3 8.02353 33.7473   1
   0   7  -3 15.0682 33.6259   1
   0  -7   3 8.01144 34.4881   1
   0   7  -5 3128.17 107.091   1
   7   0   5 2591.61 107.680   1
   0  -7   5 2760.78 103.793   1
   0   7   5 3369.50 112.772   1
   0  -7  -5 2924.75 108.752   1
  -7   0  -5 1745.91 94.7582   1
   0   7   7 14.3855 40.0885   1
   7   0   7 190.954 40.8665   1
   0   7  -7 20.3708 33.5857   1
  -7   0   7 8.75480 7.82356   1
   0  -7  -7 4.42559 40.2168   1
  -7   0  -7 265.900 44.2943   1
   7   0  -7 8.23434 8.53764   1
   0  -7   7 9.45083 34.7588   1
  -7   0  -9 629.961 58.4032   1
   0  -7   9 859.794 58.8755   1
   0  -7  -9 796.584 64.3587   1
   7   0   9 727.618 59.4469   1
   0   7  -9 882.019 57.1515   1
   0   7   9 671.610 59.8353   1
   0  -7  11 108.167 38.5765   1
   0   7  11 71.9098 40.8702   1
   0   7 -11 98.5459 36.2871   1
  -7   0 -11 61.1612 42.2502   1
   7   0  11 57.0436 42.6992   1
   0  -7 -11 90.7263 40.4159   1
  -7   0 -13 59.3875 38.8148   1
   7   0  13 21.1709 39.3870   1
   0  -7 -13 93.4334 41.0569   1
   0   7  13 75.5979 40.4908   1
   0  -7 -15 17.6653 34.1687   1
  -7   0 -15 25.2041 34.5647   1
   7   0  15 13.1786 37.0848   1
   0   7  15-14.1431 34.5521   1
  -7   0 -17 29.2434 33.1328   1
   7   0  17 11.9151 35.7332   1
   0  -7 -17 21.5890 31.4642   1
  -7  -1   0 65026.9 1574.37   1
   7   1   0 74324.4 1579.36   1
   1  -7   0 74260.8 1590.34   1
  -1   7   0 67905.7 1585.23   1
  -1   7  -2 43846.9 1010.97   1
   7   1  -2 42235.6 992.634   1
  -7  -1   2 41105.3 991.561   1
   1  -7   2 44844.7 1013.26   1
   1  -7  -2 46558.8 1016.62   1
  -1   7   2 48195.7 1019.35   1
  -7  -1   4 45694.4 1199.41   1
   7   1   4 58166.1 1239.37   1
   1  -7  -4 64491.8 1246.88   1
  -7  -1  -4 50373.0 1233.06   1
  -1   7   4 60451.9 1242.26   1
   7   1  -4 59131.6 1204.96   1
  -7  -1  -6 25209.9 698.281   1
  -1   7  -6 32231.4 707.096   1
   7   1   6 28643.0 703.487   1
   1  -7   6 34133.3 711.604   1
   1  -7   8 32667.3 732.677   1
  -7  -1  -8 25838.4 724.753   1
   7   1   8 27965.1 728.534   1
  -1   7  -8 30163.9 728.041   1
  -1   7   8 33641.1 742.044   1
   1  -7  -8 38175.0 751.361   1
   1  -7 -10 14580.4 378.200   1
   1  -7  12 9053.58 246.085   1
  -7  -1 -12 6993.72 235.158   1
   7   1  12 7798.82 240.340   1
  -1   7 -12 7120.21 235.098   1
  -1   7  12 10080.0 253.191   1
   1  -7 -12 12474.7 265.448   1
  -7  -1 -14 1396.83 79.3838   1
   1  -7 -14 2510.59 97.1836   1
   7   1  14 1204.12 76.3859   1
  -1   7  14 2075.17 92.5842   1
  -1   7  16 1042.18 67.9636   1
   1  -7 -16 1232.92 69.5259   1
  -7  -2  -1 768.360 53.1832   1
  -2   7  -1 842.626 60.9528   1
   2  -7  -1 944.553 64.7503   1
   7   2  -1 1037.40 51.0959   1
   7   2   1 1026.28 57.1385   1
   2  -7   1 1058.27 66.0753   1
  -2   7   1 797.606 60.2725   1
  -7  -2   1 806.254 47.4970   1
   2  -7  -3 1669.92 89.5527   1
  -7  -2  -3 2543.15 95.5949   1
  -2   7  -3 2089.43 92.5927   1
   7   2   3 3165.77 104.366   1
  -2   7   3 1552.70 91.8055   1
   2  -7   3 1987.06 92.8188   1
  -7  -2  -5 616.065 54.9930   1
  -2   7  -5 570.659 52.4624   1
   7   2   5 782.466 57.6006   1
  -2   7   5 475.215 56.7675   1
   2  -7  -5 647.741 58.7974   1
   2  -7   7 1393.28 75.0891   1
  -7  -2  -7 1605.80 80.9358   1
   7   2   7 1999.79 87.0713   1
  -2   7  -7 1405.08 74.6115   1
  -2   7   7 993.942 76.9172   1
   2  -7  -7 966.795 76.2538   1
  -2   7  -9 135.448 37.5355   1
  -2   7   9 153.839 44.0673   1
  -7  -2  -9 96.0561 41.3344   1
   2  -7   9 129.373 40.0798   1
   7   2   9 156.762 42.5892   1
  -2   7 -11 189.398 40.2581   1
   2  -7  11 200.811 44.3422   1
   7   2  11 166.787 43.1850   1
  -7  -2 -11 163.865 43.7915   1
  -2   7 -13 38.4144 35.1388   1
   2  -7  13 41.5193 38.4523   1
   7   2  13 11.7198 37.8587   1
   2  -7 -13 104.096 40.0694   1
  -7  -2 -13 26.3689 38.6117   1
  -2   7  13 52.9997 39.6241   1
   7   2  15 17.0237 34.2843   1
  -7  -2 -15 13.6167 32.5328   1
  -2   7  15 17.4504 34.9184   1
   2  -7 -15 28.2606 34.2922   1
  -3   7   0 12753.2 375.736   1
   3  -7   0 16706.4 388.153   1
  -7  -3   0 14729.6 370.222   1
   7   3   0 16548.4 374.125   1
  -3   7  -2 7915.38 270.613   1
  -7  -3  -2 12043.3 282.904   1
   7   3   2 13996.9 289.471   1
   3  -7  -2 9366.59 278.569   1
   7   3  -2 12699.7 263.477   1
  -7  -3   2 10989.7 259.805   1
   3  -7   2 9423.71 277.648   1
  -3   7   2 7674.27 270.004   1
  -3   7  -4 14304.7 414.832   1
  -7  -3  -4 17946.0 424.277   1
   7   3   4 19597.1 428.548   1
   3  -7  -4 18554.3 428.924   1
  -3   7   4 14130.5 417.044   1
   3  -7   4 17816.3 425.128   1
   3  -7   6 11386.6 282.349   1
  -3   7  -6 9597.91 273.983   1
   3  -7  -6 11286.0 281.336   1
  -3   7   6 8357.50 269.281   1
   3  -7   8 15254.8 374.012   1
  -7  -3  -8 16312.0 378.947   1
   7   3   8 16365.3 378.848   1
  -3   7  -8 12208.3 362.998   1
  -3   7   8 11819.6 367.145   1
   3  -7  -8 15568.4 379.358   1
   3  -7  10 6767.81 202.122   1
  -7  -3 -10 7582.65 208.710   1
   7   3  10 6409.80 198.842   1
  -3   7 -10 5608.11 192.498   1
  -3   7  10 5759.76 193.795   1
   3  -7 -10 7703.52 207.349   1
   3  -7  12 5806.16 177.353   1
  -3   7 -12 4298.88 164.645   1
  -3   7  12 5372.04 178.737   1
   3  -7 -12 7072.53 190.789   1
   3  -7 -14 1770.33 87.0158   1
  -3   7  14 1309.02 81.4247   1
  -7  -3 -16 631.893 51.9915   1
   7   3  16 558.978 51.3129   1
  -4   7   1 1142.48 73.7386   1
  -7  -4   1 1592.29 65.8805   1
   7   4  -1 1673.49 66.8552   1
   4  -7  -1 1586.78 80.1485   1
  -4   7  -3 1019.28 68.3110   1
   7   4   3 1547.75 72.9975   1
  -7  -4  -3 1445.22 72.7235   1
   4  -7   3 1293.66 74.5666   1
  -4   7   5 1098.67 76.0232   1
  -4   7  -5 1341.38 78.0336   1
   7   4   5 2609.55 96.1762   1
  -7  -4  -5 2311.45 93.8379   1
   4  -7   5 1493.12 82.5808   1
   4  -7  -5 1474.39 81.7050   1
   4  -7   7 522.300 56.3493   1
   4  -7  -7 470.477 53.9116   1
  -4   7  -7 433.873 52.4749   1
   7   4   7 691.247 58.0024   1
  -7  -4  -7 588.406 56.7353   1
  -4   7   7 370.750 52.4055   1
   4  -7   9 315.934 49.1364   1
  -4   7  -9 268.179 44.8087   1
  -4   7   9 217.127 46.3525   1
   4  -7  -9 223.946 46.3109   1
  -4   7  11 63.6869 39.1713   1
  -4   7 -11 46.6521 35.8696   1
   4  -7  11 70.0243 39.3232   1
   7   4  11 49.6051 40.0320   1
  -7  -4 -11 27.1720 41.6655   1
   4  -7 -11 84.6248 39.4534   1
  -4   7  13 26.3257 38.0958   1
   4  -7 -13 45.8608 36.9031   1
  -7  -4 -13 24.3435 34.1429   1
   7   4  13 33.0344 34.0744   1
  -7  -4 -15 7.74992 30.4548   1
   7   4  15-4.98237 31.7624   1
  -5   7   0 52763.2 1407.17   1
   5  -7   0 75182.6 1427.51   1
  -5   7   2 41362.8 1264.22   1
  -5   7  -2 41104.2 1263.83   1
  -7  -5   2 60217.3 1260.63   1
   7   5  -2 64265.3 1262.31   1
   7   5   2 64433.3 1280.57   1
  -7  -5  -2 63550.8 1280.32   1
   5  -7  -2 59944.1 1283.33   1
   5  -7   2 56480.1 1279.45   1
  -7  -5   4 35325.9 933.818   1
   5  -7   4 50540.5 987.612   1
   5  -7  -4 55294.2 993.732   1
  -5   7  -4 36318.7 968.349   1
   7   5   4 52702.4 987.461   1
  -7  -5  -4 52336.0 988.216   1
   7   5  -4 40963.2 936.115   1
   5  -7   6 24852.7 578.529   1
  -5   7  -6 18349.9 562.546   1
   7   5   6 28400.2 585.077   1
   5  -7  -6 26592.7 585.164   1
  -7  -5  -6 28562.7 586.222   1
  -5   7   6 19369.4 564.984   1
   5  -7  -8 23274.7 491.852   1
  -5   7   8 16346.2 472.796   1
   5  -7  10 7676.40 211.211   1
   7   5  10 6968.21 206.178   1
  -7  -5 -10 7379.62 209.770   1
  -5   7 -10 5673.05 196.689   1
   5  -7  12 5085.28 166.199   1
   7   5  12 5361.65 168.661   1
  -7  -5 -12 5069.29 166.797   1
   5  -7 -12 7708.06 189.570   1
  -5   7 -12 3831.91 155.197   1
  -5   7  12 5300.01 176.548   1
   5  -7  14 1633.28 80.0704   1
  -7  -5 -14 1381.03 75.4273   1
   7   5  14 1279.06 73.7242   1
  -5   7 -14 1242.58 72.2376   1
  -6   7  -1 186.482 43.0580   1
   7   6   1 307.240 40.6735   1
  -7  -6  -1 320.184 41.8039   1
  -6   7   1 192.098 45.6375   1
   6  -7  -1 236.880 45.3962   1
   6  -7   1 250.848 43.5592   1
   6  -7   3 507.562 54.7372   1
  -6   7   3 449.567 54.2622   1
  -6   7  -3 482.299 53.8399   1
   7   6  -3 1189.63 50.9657   1
  -7  -6   3 1079.16 50.1295   1
   7   6   3 1072.48 63.7410   1
  -7  -6  -3 1121.68 66.1515   1
   6  -7  -3 541.294 55.7666   1
   6  -7   5 400.087 52.6506   1
  -6   7  -5 404.717 51.1750   1
   7   6   5 982.374 65.7894   1
  -7  -6  -5 1006.29 66.9147   1
   6  -7  -5 452.769 52.4103   1
  -6   7   5 360.792 50.4785   1
   6  -7   7 187.748 44.9139   1
  -6   7   7 180.541 44.2613   1
  -6   7  -7 221.245 42.8108   1
   6  -7  -7 223.244 44.4575   1
  -6   7  -9 35.5024 33.9284   1
  -7  -6  -9 93.8722 42.4269   1
   6  -7   9 42.6195 37.9269   1
   7   6   9 77.1930 38.6348   1
  -7  -6 -11 27.5258 38.7361   1
  -6   7  11 9.22951 37.6209   1
  -6   7 -11 10.6042 33.0681   1
   6  -7  11 14.7300 36.6165   1
   7   6  11 18.1486 35.2193   1
   6  -7 -11 6.14464 35.2796   1
  -6   7 -13 10.9837 32.6065   1
   6  -7  13 8.67699 36.2961   1
   7   6  13 13.5269 34.5820   1
  -7  -6 -13-10.7105 35.8630   1
  -6   7 -15 3.33700 28.6376   1
   6  -7  15 19.4755 34.1423   1
  -7   7   0 1035.15 74.3854   1
   7   7   0 2082.40 84.5179   1
  -7  -7   0 2195.64 86.4073   1
   7  -7   0 1481.82 81.4252   1
  -7   7   2 1089.59 70.2661   1
   7  -7   2 1188.06 71.8909   1
  -7   7  -2 945.522 68.3344   1
   7  -7  -2 1337.31 74.2918   1
  -7   7   4 2003.85 99.9528   1
   7  -7   4 2493.35 106.288   1
  -7   7  -4 1833.62 97.7796   1
   7   7   4 3598.99 118.978   1
  -7  -7  -4 3706.83 122.069   1
   7  -7  -4 2762.94 109.216   1
   7  -7   6 2328.13 103.020   1
  -7   7  -6 1966.14 96.8657   1
   7  -7  -6 2721.77 105.746   1
  -7   7   6 1992.28 95.9944   1
   7   7   8 4225.40 148.795   1
  -7  -7  -8 4588.36 152.932   1
   7  -7  10 1694.85 87.7721   1
   7   7  10 2184.87 94.7815   1
  -7   7 -10 1432.04 80.9812   1
  -7  -7 -10 2675.35 102.977   1
   7  -7  12 1920.30 85.5530   1
  -7   7 -12 1373.74 76.0708   1
  -7   7 -14 628.881 51.4316   1
   7  -7  14 747.449 56.0454   1
   8  -7  -1 135.626 39.0262   1
   8  -7   1 141.932 40.6955   1
   7   8   1 173.152 38.1470   1
  -8   7  -1 69.2306 39.3267   1
  -8   7   1 95.4072 38.5082   1
   7   8  -1 148.841 35.0337   1
  -7  -8  -1 192.166 40.8441   1
   8  -7   3 212.830 46.5460   1
  -7  -8  -3 692.595 57.3903   1
  -8   7  -3 235.386 47.8401   1
   7   8   3 679.293 55.5004   1
   8  -7   5 153.372 44.1366   1
  -8   7  -5 176.415 45.4843   1
   7   8   5 592.135 53.5436   1
  -8   7   5 180.983 42.0139   1
  -7  -8  -5 561.512 55.2294   1
   8  -7  -5 228.832 43.0373   1
   8  -7  -7 113.316 39.0845   1
   8  -7   7 66.7935 38.6943   1
  -8   7   7 103.092 40.0070   1
   7   8   7 302.974 44.7423   1
  -8   7  -7 98.4368 38.8134   1
  -7  -8  -7 333.857 47.4408   1
  -7  -8  -9 75.3740 39.1578   1
   7   8   9 74.7367 36.0808   1
  -8   7 -11 2.24052 30.9064   1
  -7  -8 -11 15.8550 34.4366   1
   8  -7  11 13.4464 33.6220   1
   7   8  11 6.22593 31.7246   1
  -8   6   0 1984.47 103.662   1
   6   8   0 3164.71 113.300   1
  -6  -8   0 3684.54 119.699   1
   8  -6   0 3311.58 118.687   1
  -8   6   2 1547.10 88.8716   1
  -6  -8  -2 2755.38 105.041   1
  -6  -8   2 2828.23 99.9747   1
   6   8   2 2515.68 100.042   1
   6   8  -2 2491.48 95.9081   1
   8  -6  -2 2192.74 97.4598   1
  -8   6   4 2955.55 123.665   1
   8  -6   4 3752.17 135.099   1
  -6  -8  -4 4817.59 143.324   1
  -8   6  -4 2515.52 120.676   1
   6   8   4 4270.52 137.305   1
   8  -6  -4 4417.00 138.206   1
  -8   6   6 2617.99 115.258   1
   8  -6   6 2938.14 120.032   1
  -8   6  -6 2381.06 114.026   1
   6   8   6 4270.18 134.613   1
   8  -6  -6 3513.90 126.369   1
  -6  -8  -6 4966.76 142.585   1
   8  -6   8 3916.62 136.717   1
   6   8   8 4639.21 143.907   1
  -8   6  -8 2875.34 125.162   1
   8  -6  -8 4270.17 142.398   1
  -6  -8  -8 5054.75 148.040   1
  -8   6   8 2650.38 125.446   1
   8  -6  10 1936.56 95.4326   1
   6   8  10 2371.14 99.6068   1
  -8   6 -10 1607.21 88.3864   1
  -6  -8 -10 3040.93 108.561   1
   8  -6  12 1954.99 89.3760   1
   6   8  12 1842.50 86.1715   1
  -8   6 -12 1461.48 79.9563   1
  -6  -8 -12 2268.01 93.3535   1
   8  -5   1 1778.20 84.2622   1
   8  -5  -1 1783.05 83.1450   1
  -8   5   1 1022.65 71.2973   1
  -8   5  -1 1074.76 73.3238   1
   5   8   1 1575.38 77.2722   1
   5   8  -1 1521.66 74.5143   1
  -5  -8  -1 1940.84 84.8803   1
  -5  -8   1 1867.62 81.7946   1
   8  -5   3 1428.40 81.6842   1
   8  -5  -3 1742.42 82.6938   1
  -8   5   3 1187.91 74.2681   1
  -5  -8   3 2229.95 84.7105   1
  -8   5  -3 1007.07 73.5200   1
  -5  -8  -3 2165.99 91.7123   1
   5   8   3 1838.77 85.0327   1
   5   8  -3 1902.42 78.3220   1
  -5  -8   5 1594.14 70.4121   1
  -5  -8  -5 1641.73 82.1285   1
   5   8   5 1332.34 76.6339   1
   5   8  -5 1346.26 65.1027   1
   8  -5   7 477.986 51.7357   1
  -5  -8  -7 821.757 63.0053   1
   5   8   7 730.140 60.4619   1
  -8   5  -7 341.308 49.2975   1
   8  -5  -7 496.035 51.4461   1
  -8   5   7 397.860 49.6328   1
  -5  -8  -9 162.709 45.4304   1
   5   8   9 145.490 40.7856   1
   8  -5  11 24.3595 35.8867   1
  -8   5 -11 42.3327 34.2931   1
  -5  -8 -11 59.8472 39.6231   1
   5   8  11 25.5597 36.3557   1
   8  -5  13 15.7156 35.5711   1
  -8   5 -13 0.56111 31.3174   1
  -5  -8 -13 1.11634 35.4715   1
   5   8  13-13.9534 33.8206   1
   8  -4   0 45119.2 1085.76   1
  -8   4   0 34184.4 1073.24   1
   4   8   0 55527.5 1094.13   1
  -4  -8   0 63005.2 1104.95   1
   8  -4  -2 34907.4 872.454   1
   8  -4   2 30771.0 869.571   1
  -4  -8  -2 52885.3 900.496   1
  -8   4   2 27615.8 862.497   1
  -8   4  -2 26127.4 862.905   1
   4   8   2 47466.9 891.020   1
   4   8  -2 47115.5 884.224   1
  -4  -8   2 54151.6 893.414   1
  -8   4   4 23386.5 730.784   1
   8  -4   4 28261.5 743.385   1
  -4  -8  -4 41780.3 765.848   1
   8  -4  -4 32800.5 746.088   1
  -8   4  -4 22254.1 732.702   1
   4   8   4 35496.3 755.272   1
   4   8  -4 37013.0 745.078   1
  -4  -8   4 41867.6 752.214   1
   8  -4   6 14236.0 408.631   1
  -8   4  -6 12582.1 402.990   1
   4   8  -6 20058.7 409.842   1
  -4  -8   6 23320.8 417.805   1
   8  -4  -6 17111.0 413.544   1
  -8   4   6 12972.0 401.205   1
   8  -4  -8 13123.1 316.003   1
   8  -4   8 12265.9 314.841   1
  -4  -8  -8 15889.7 330.353   1
   4   8   8 12620.9 318.671   1
  -8   4  -8 9726.58 303.878   1
  -8   4   8 8933.82 298.130   1
   8  -4  12 4865.14 147.127   1
  -4  -8 -12 4392.07 143.213   1
   4   8  12 3575.12 136.062   1
  -8   4 -12 3481.95 134.035   1
  -4  -8 -14 1338.63 73.0189   1
   8  -3  -1 5820.13 156.567   1
   8  -3   1 5290.51 156.667   1
  -8   3   1 3579.64 140.350   1
  -8   3  -1 3265.14 140.651   1
   3   8   1 4630.14 149.038   1
   3   8  -1 4545.98 148.664   1
  -3  -8  -1 5136.62 154.145   1
  -3  -8   1 5166.79 153.195   1
  -8   3   3 2598.79 113.303   1
   3   8  -3 3601.21 121.190   1
  -3  -8   3 4079.31 125.886   1
   8  -3  -3 4119.82 126.646   1
  -8   3   5 1998.34 94.5016   1
   8  -3   5 2538.58 107.483   1
  -3  -8  -5 4154.22 124.617   1
  -3  -8   5 3402.42 108.568   1
   3   8   5 3513.23 117.317   1
  -8   3  -5 1661.81 98.0132   1
   8  -3  -5 2816.32 103.933   1
   3   8  -5 3034.49 104.715   1
   8  -3   7 1040.75 67.0065   1
   3   8   7 940.917 64.7152   1
  -8   3  -7 636.989 59.4325   1
  -3  -8  -7 1163.01 69.9165   1
  -3  -8   7 1112.73 59.6670   1
   8  -3  -7 941.678 58.0755   1
   3   8  -7 986.796 56.4598   1
  -8   3   7 620.008 51.2703   1
   8  -3   9 376.520 50.2261   1
  -3  -8  -9 545.335 55.9088   1
   3   8   9 385.506 51.0181   1
  -8   3  -9 249.868 47.7904   1
  -3  -8 -11 159.814 42.7103   1
   8  -3  11 101.039 41.3410   1
  -8   3 -11 59.3287 38.6718   1
   3   8  11 130.438 41.6072   1
   8  -3  13 36.7663 38.5527   1
  -8   3 -13 27.5707 36.0657   1
  -3  -8 -13 41.9240 37.7195   1
   3   8  13 8.61598 36.9843   1
   8  -3  15 3.83865 33.1695   1
  -8   3 -15 6.03028 30.3795   1
   8  -2   0 28388.1 587.653   1
  -8   2   0 19207.6 570.096   1
   2   8   0 23940.6 581.007   1
  -2  -8   0 27407.8 588.571   1
   8  -2  -2 17762.3 385.850   1
   8  -2   2 15851.2 387.565   1
  -8   2   2 12570.9 370.682   1
  -8   2  -2 11871.9 375.592   1
  -2  -8   2 18805.4 393.963   1
   2   8  -2 16458.3 386.490   1
   2   8   4 22747.2 591.403   1
  -2  -8  -4 26374.6 599.152   1
  -2  -8   4 26566.0 593.622   1
   2   8  -4 23317.5 586.946   1
   8  -2   6 13711.1 377.383   1
  -2  -8  -6 19420.4 398.955   1
   2   8   6 16206.7 387.607   1
  -8   2  -6 12139.3 371.907   1
   8  -2  -6 14674.9 365.895   1
  -2  -8   6 18968.3 384.576   1
  -8   2   6 11501.2 357.292   1
   2   8  -6 16634.0 377.814   1
   2   8  -8 16366.3 396.109   1
   8  -2   8 16521.1 405.897   1
  -2  -8   8 18299.6 402.292   1
  -8   2  -8 12755.0 392.794   1
   8  -2  -8 15564.9 384.175   1
  -8   2 -10 6696.36 227.560   1
   8  -2  10 7816.49 233.442   1
  -2  -8 -10 10566.4 248.108   1
   2   8  10 8250.14 236.735   1
  -2  -8 -12 6779.92 185.078   1
   8  -2  12 6239.71 181.268   1
   2   8  12 5121.37 174.686   1
  -8   2 -12 4651.89 169.242   1
   8  -2  14 1662.24 82.3124   1
  -8   2 -14 1404.55 75.9640   1
   8  -1   1 8156.34 202.011   1
  -8   1  -1 5336.38 186.969   1
  -1  -8  -1 7558.48 202.516   1
   1   8   1 6229.31 193.989   1
   1   8  -1 6412.96 194.164   1
  -1  -8   1 7297.30 202.376   1
   8  -1  -3 6444.72 161.381   1
   8  -1   3 5980.24 170.239   1
  -8   1   3 4295.31 149.202   1
  -8   1  -3 4016.84 157.014   1
  -1  -8   3 6403.28 172.461   1
   1   8  -3 5670.83 166.644   1
  -8   1   5 2282.86 91.6755   1
   8  -1  -5 3297.43 100.384   1
   1   8   5 2903.43 113.459   1
  -1  -8  -5 3211.95 117.857   1
   1   8  -5 3196.57 111.465   1
  -1  -8   5 3437.83 115.299   1
   1   8  -7 1751.56 76.8416   1
  -8   1  -7 1103.13 71.6963   1
   8  -1   7 1577.20 79.0259   1
  -1  -8   7 1810.39 78.8196   1
  -8   1   7 902.947 50.3954   1
  -1  -8  -7 2428.50 94.2232   1
   1   8   7 1855.79 86.3505   1
   8  -1  -7 1336.95 56.3743   1
   1   8  -9 426.390 45.5032   1
  -1  -8   9 436.016 47.1293   1
   8  -1   9 630.453 55.3000   1
  -8   1  -9 393.403 51.0311   1
   1   8   9 306.269 49.4335   1
  -1  -8  -9 448.790 52.3127   1
  -8   1 -11 113.207 41.8692   1
   8  -1  11 151.519 41.7922   1
  -1  -8 -11 152.934 40.3001   1
   1   8  11 99.2279 40.4066   1
  -8   1 -13 24.3342 34.6472   1
   8  -1  13 36.5039 35.9318   1
   1   8  13 33.9074 37.0972   1
  -1  -8 -15 26.0279 33.0494   1
   1   8  15 11.3178 34.1274   1
   0  -8   0 41687.9 1061.97   1
   0   8   0 51660.8 1073.11   1
   8   0  -2 29241.4 733.926   1
   8   0   2 24755.6 740.636   1
  -8   0   2 32093.8 736.565   1
   0   8  -2 39603.7 758.823   1
   0  -8  -2 35178.8 754.441   1
  -8   0  -2 24716.6 735.897   1
   0   8   2 47488.7 775.119   1
   0  -8   2 31448.4 747.937   1
   0   8  -4 38066.9 809.251   1
  -8   0   4 30747.2 780.087   1
   8   0   4 33104.3 808.733   1
   0   8   4 40292.3 817.314   1
   0  -8  -4 43497.0 823.413   1
  -8   0  -4 28518.3 798.384   1
   0  -8   4 38612.1 810.234   1
   8   0  -4 31693.7 781.604   1
   0   8  -6 22150.6 427.866   1
   0   8   6 24596.2 441.942   1
   0  -8  -6 28216.2 452.404   1
   8   0  -6 13151.3 377.259   1
  -8   0   6 13160.3 376.588   1
   0  -8   6 22655.2 430.004   1
   0   8  -8 16863.9 437.693   1
   8   0   8 16894.3 442.348   1
   0   8   8 17443.8 444.374   1
   0  -8  -8 21710.8 457.208   1
  -8   0  -8 15319.5 437.818   1
   0  -8   8 18703.4 443.503   1
   0  -8 -10 9728.32 246.058   1
   0   8 -10 7661.97 229.011   1
   8   0  10 7843.32 232.725   1
   0   8  10 8000.55 236.573   1
  -8   0 -10 7251.87 229.319   1
   0  -8  10 8605.79 235.314   1
   8   0  12 5398.11 167.233   1
  -8   0 -12 4668.07 161.437   1
   8   0  14 1292.75 75.3871   1
  -8   0 -14 1334.22 74.4723   1
   8   0  16 497.043 50.7564   1
   0   8  16 629.648 57.6815   1
  -8   0 -16 565.795 50.1907   1
   0  -8 -16 844.150 57.7263   1
  -1   8  -1 6085.95 191.333   1
   8   1  -1 7953.73 187.995   1
   8   1   1 7598.22 193.760   1
  -8  -1   1 5535.95 176.425   1
  -8  -1  -1 5169.07 181.242   1
   1  -8  -1 7463.60 200.768   1
   1  -8   1 7383.16 200.484   1
  -1   8   1 6213.60 192.172   1
   8   1  -3 6458.74 150.990   1
  -8  -1  -3 4489.81 159.922   1
   8   1   3 6275.01 172.452   1
  -8  -1   3 4519.84 141.627   1
  -1   8   3 4669.21 163.259   1
   1  -8   3 5530.42 169.219   1
   1  -8  -3 5549.06 170.775   1
  -8  -1   5 1334.87 52.1354   1
  -1   8   5 2790.26 107.202   1
  -1   8  -5 2937.81 100.568   1
   8   1  -5 1963.52 56.4933   1
   1  -8   5 3236.18 105.158   1
   1  -8  -5 3346.57 110.850   1
   8   1   7 1980.16 87.1994   1
  -1   8   7 1099.52 74.8664   1
   1  -8  -7 1355.68 78.1734   1
  -1   8  -9 511.089 49.7604   1
   8   1   9 435.525 51.1214   1
   1  -8  -9 664.398 59.3702   1
  -1   8   9 522.571 57.1049   1
  -8  -1  -9 361.125 50.9169   1
   1  -8   9 562.889 51.9148   1
  -1   8  11 153.225 43.7915   1
   1  -8  11 152.489 40.1534   1
   8   1  11 197.674 42.3647   1
   1  -8 -11 186.459 43.7502   1
  -8  -1 -11 124.531 41.2694   1
  -1   8 -11 128.428 36.8094   1
  -8  -1 -13 29.5521 34.7393   1
   1  -8 -13 56.8411 37.3261   1
   8   1  13 20.8595 34.8658   1
  -1   8  13 43.8451 39.2354   1
   1  -8 -15 2.31668 32.5319   1
  -8  -1 -15 19.9430 33.0605   1
   8   1  15 11.0804 35.1509   1
  -1   8  15 13.3275 34.4093   1
   8   2   0 25811.4 537.054   1
  -8  -2   0 19491.1 526.951   1
  -8  -2  -2 13474.4 370.597   1
   8   2  -2 17247.6 363.064   1
   8   2   2 16091.1 378.263   1
  -8  -2   2 13362.1 354.844   1
   2  -8  -2 16568.0 385.853   1
  -2   8   2 12762.6 373.075   1
   8   2  -4 19195.3 389.802   1
  -8  -2  -4 19260.5 432.676   1
  -8  -2   4 12439.1 383.003   1
   8   2   4 22797.9 441.515   1
   2  -8  -4 25037.8 450.542   1
  -2   8   4 18373.1 432.271   1
  -8  -2  -6 14355.5 366.436   1
  -2   8  -6 12620.3 358.764   1
   8   2   6 15879.6 372.108   1
  -2   8   6 11725.6 362.254   1
   2  -8  -6 15729.6 373.589   1
   2  -8   6 15082.9 367.881   1
   2  -8   8 16821.2 404.729   1
  -2   8  -8 13917.4 395.059   1
   8   2   8 16744.5 406.159   1
  -2   8   8 13951.5 401.074   1
   2  -8  -8 18087.8 411.790   1
   2  -8  10 8255.11 231.229   1
  -8  -2 -10 7928.59 230.651   1
   8   2  10 7776.21 229.314   1
  -2   8 -10 7032.52 223.417   1
  -2   8  10 7323.60 227.263   1
   2  -8 -10 9759.55 241.384   1
   2  -8  12 5832.05 173.507   1
  -8  -2 -12 4689.31 163.185   1
   8   2  12 5348.53 167.944   1
  -2   8 -12 4824.36 164.575   1
  -8  -2 -14 1263.29 74.9713   1
   8   2  14 1162.00 73.1464   1
   2  -8 -14 2412.22 94.6195   1
  -2   8  14 1912.06 88.7161   1
  -3   8   1 3559.77 137.776   1
  -8  -3  -1 3912.58 134.814   1
  -3   8  -1 3735.56 139.030   1
   8   3  -1 4953.58 133.527   1
   8   3   1 4740.53 139.696   1
   3  -8  -1 4770.66 148.991   1
  -8  -3   1 3777.58 126.188   1
   3  -8   1 4969.26 150.315   1
   8   3  -3 3731.84 97.2129   1
  -8  -3  -3 3095.56 117.010   1
  -3   8  -3 2950.22 116.651   1
   8   3   3 3707.41 122.000   1
  -8  -3   3 2689.91 90.9920   1
   3  -8  -3 3603.06 125.479   1
  -3   8   3 2704.43 115.754   1
   3  -8   3 3796.62 126.997   1
  -3   8   5 1727.19 93.6327   1
  -8  -3  -5 2565.71 103.137   1
  -3   8  -5 2112.14 96.3178   1
   8   3   5 3031.45 108.476   1
   3  -8  -5 2340.46 100.780   1
   3  -8   5 2493.82 102.154   1
   3  -8  -7 851.168 63.8496   1
   3  -8   7 944.547 65.9361   1
  -8  -3  -7 846.475 64.9321   1
  -3   8  -7 799.515 60.9196   1
   8   3   7 977.704 66.3598   1
  -3   8   7 717.907 62.0418   1
  -3   8   9 289.562 48.4739   1
   3  -8  -9 389.372 49.2966   1
  -3   8  11 34.1653 39.3748   1
  -3   8 -11 83.3343 36.6495   1
   3  -8  11 87.6545 39.7920   1
   3  -8 -11 89.2358 39.5834   1
  -3   8  13 42.6167 37.6729   1
   3  -8 -13 36.5790 36.5007   1
   8   3  13 51.0864 35.2308   1
  -8  -3 -13 36.1678 35.6266   1
   8   3  15 4.35123 33.6451   1
  -8  -3 -15-1.63172 32.7994   1
  -4   8   0 33998.3 908.814   1
   4  -8   0 46208.0 926.754   1
  -4   8   2 24575.8 797.268   1
  -4   8  -2 25440.6 797.161   1
  -8  -4  -2 38571.0 814.499   1
   8   4  -2 42179.2 796.739   1
   8   4   2 44563.8 821.548   1
   4  -8  -2 34326.8 813.030   1
  -8  -4   2 35835.2 791.623   1
   4  -8   2 34417.8 811.858   1
   8   4  -4 10363.0 293.799   1
  -4   8  -4 23105.6 379.171   1
   4  -8  -4 31306.8 409.902   1
  -4   8   4 21507.4 379.078   1
   4  -8   4 30891.1 405.253   1
   4  -8   6 16446.8 421.607   1
  -4   8  -6 12682.7 409.151   1
  -8  -4  -6 18470.9 429.173   1
   8   4   6 20390.4 433.912   1
   4  -8  -6 17428.8 425.760   1
   4  -8   8 12688.0 324.542   1
  -8  -4  -8 12985.8 326.565   1
  -4   8  -8 9619.17 310.827   1
   8   4   8 13898.6 329.901   1
   4  -8  10 5638.85 171.054   1
  -8  -4 -10 5639.39 171.090   1
  -4   8 -10 4254.12 158.608   1
  -4   8  10 4623.52 174.848   1
   4  -8 -10 5688.94 181.876   1
  -8  -4 -12 3652.09 135.305   1
   8   4  12 3855.83 137.381   1
   4  -8 -12 5799.90 156.389   1
  -4   8 -12 3149.25 130.163   1
  -4   8  12 3846.66 141.155   1
   4  -8  12 3791.28 137.283   1
  -8  -4 -14 1110.96 66.2455   1
   8   4  14 968.020 63.8872   1
  -5   8   1 1061.81 71.4321   1
   5  -8  -1 1565.26 80.5688   1
  -5   8  -1 1078.58 72.3634   1
  -8  -5   1 1479.05 68.5245   1
   5  -8   1 1603.35 81.9735   1
  -8  -5  -1 1516.70 74.5517   1
   8   5  -1 1699.45 71.0117   1
   8   5   1 1595.04 74.7800   1
  -8  -5   3 1466.90 58.2109   1
  -5   8  -3 1121.09 72.3301   1
   8   5  -3 1800.69 61.9747   1
   8   5   3 1985.58 84.6733   1
  -8  -5  -3 1776.88 83.7181   1
   5  -8  -3 1573.42 82.2839   1
   5  -8   3 1478.70 80.0457   1
  -5   8   3 1159.06 74.9633   1
  -5   8   5 635.270 60.8442   1
   8   5   5 1365.43 73.1599   1
  -8  -5  -5 1287.25 73.6806   1
   5  -8  -5 977.136 67.3842   1
   5  -8   7 441.281 53.7724   1
  -5   8  -7 348.975 46.4296   1
  -5   8  -9 70.1115 36.4207   1
  -5   8   9 54.1076 39.2227   1
   5  -8   9 75.5029 40.1722   1
   8   5   9 152.337 40.9806   1
  -8  -5  -9 89.3168 42.1370   1
   5  -8  -9 90.1125 40.4156   1
  -5   8 -11 23.7231 33.1317   1
  -5   8  11 32.8163 37.9866   1
   5  -8  11 29.6753 35.3592   1
   8   5  11 36.2392 36.3293   1
  -8  -5 -11 33.9128 38.7946   1
   5  -8 -11 28.5370 36.3526   1
  -5   8 -13 14.6217 31.3452   1
   5  -8  13 7.60740 34.1344   1
  -8  -5 -13 11.2130 33.8101   1
   8   5  13 14.0134 32.5051   1
  -6   8   0 1912.60 99.4828   1
   8   6   0 2873.76 103.766   1
  -8  -6   0 2992.01 105.297   1
   6  -8   0 2950.35 113.587   1
  -6   8   2 1374.27 83.6990   1
   8   6   2 2503.61 96.4290   1
  -8  -6  -2 2433.34 96.9557   1
   6  -8  -2 2079.10 94.3867   1
  -6   8  -4 2605.11 120.184   1
   8   6   4 4281.06 137.596   1
  -8  -6  -4 4294.38 138.532   1
   6  -8   4 3752.29 133.310   1
   6  -8   6 3150.63 115.574   1
  -6   8  -6 2335.05 104.348   1
   6  -8  -6 3340.53 119.001   1
  -6   8   6 2075.29 101.984   1
   8   6   8 4591.82 144.684   1
  -8  -6  -8 4536.76 145.582   1
  -6   8   8 2596.22 125.990   1
   6  -8  -8 4211.48 143.871   1
   8   6  10 2386.40 98.9280   1
  -8  -6 -10 2673.98 104.206   1
  -6   8 -10 1632.53 86.4076   1
  -6   8  10 1297.68 86.7037   1
   6  -8  10 2092.98 96.0123   1
   6  -8 -10 2366.88 102.369   1
   6  -8  12 1856.95 85.7847   1
  -8  -6 -12 1773.21 85.1473   1
   8   6  12 1799.79 85.2914   1
  -6   8 -12 1340.56 76.1514   1
   6  -8  14 779.875 57.3965   1
  -6   8 -14 609.259 50.5886   1
   7  -8   1 194.184 43.1229   1
  -8  -7  -1 144.761 37.3549   1
   8   7   1 164.075 34.8973   1
  -7   8  -1 98.0119 42.3998   1
  -7   8  -3 223.065 44.3575   1
  -7   8   3 247.227 45.5440   1
   8   7   3 692.809 55.5938   1
  -8  -7  -3 639.669 54.9783   1
   7  -8  -3 276.746 45.7519   1
   7  -8   3 252.525 44.5055   1
   7  -8   5 175.012 46.2451   1
  -7   8  -5 202.709 45.4086   1
  -7   8   5 165.898 42.9425   1
   7  -8  -5 235.762 43.9254   1
   7  -8  -7 83.4405 39.0229   1
   7  -8   7 63.3318 38.4925   1
  -7   8   7 102.292 39.9852   1
   8   7   7 337.720 46.6962   1
  -8  -7  -7 364.481 49.7560   1
  -7   8  -7 114.333 38.2097   1
   7  -8  -9 21.4005 35.4605   1
  -7   8  -9 16.2091 34.4227   1
  -8  -7  -9 28.9886 37.5800   1
  -7   8   9 18.9779 36.9885   1
   7  -8   9 19.1080 37.7160   1
   8   7   9 49.0677 36.3620   1
  -8  -7 -11 19.3340 34.8288   1
  -7   8 -11-13.5553 33.5594   1
   7  -8  11-11.3008 36.6858   1
   8   7  11 20.4606 32.8053   1
  -8   8   0 13223.4 400.789   1
   8  -8   0 20471.5 425.492   1
  -8   8   2 10885.9 340.362   1
  -8   8  -2 11477.0 341.589   1
   8  -8  -2 16578.6 363.398   1
   8  -8   2 16141.8 361.077   1
   8  -8   4 13617.0 330.344   1
  -8   8  -4 8874.32 310.138   1
   8   8   4 15934.9 343.159   1
  -8  -8  -4 16355.3 345.422   1
   8  -8  -4 14583.1 336.691   1
  -8   8   4 8806.84 311.279   1
   8  -8   6 7805.11 213.497   1
  -8   8  -6 5167.88 196.294   1
   8   8   6 9050.91 223.771   1
  -8  -8  -6 9412.61 226.529   1
   8  -8  -6 8682.80 221.837   1
  -8   8   6 4869.12 196.887   1
   8  -8   8 5048.69 157.381   1
  -8   8  -8 3246.78 140.330   1
   8   8   8 5138.73 158.863   1
  -8  -8  -8 5738.85 164.792   1
   8  -8  10 2439.27 99.2197   1
   8   8  10 2453.88 98.6400   1
  -8   8 -10 1579.04 85.9756   1
  -8  -8 -10 2522.20 100.899   1
   9  -8  -1 131.675 39.3197   1
   9  -8   1 105.669 38.7212   1
  -9   8   1 112.100 40.3551   1
  -9   8  -1 87.4202 38.6043   1
   9  -8  -3 154.457 39.2167   1
  -9   8   3 124.501 40.3310   1
  -9   8  -3 164.742 39.6782   1
   9  -8  -5 134.093 39.5773   1
   9  -8   5 102.931 38.1157   1
  -9   8   5 158.541 40.9568   1
  -9   8  -5 77.6494 37.2526   1
   9  -8   7 35.4031 36.8122   1
  -8  -9  -7 149.139 41.8880   1
   8   9   7 165.726 39.1649   1
  -9   8  -7 49.4567 37.0237   1
  -9   8  -9 15.7522 30.0380   1
   9  -8   9 17.9258 31.2101   1
  -9   7   0 12337.0 373.296   1
   9  -7   0 18287.0 395.191   1
  -9   7   2 10451.3 352.090   1
  -9   7  -2 10054.7 349.956   1
   7   9   2 18399.3 382.160   1
   9  -7  -2 15625.0 372.700   1
  -7  -9  -2 20509.0 390.710   1
   9  -7   2 14881.8 368.614   1
  -9   7   4 8470.68 291.461   1
   9  -7   4 11937.4 307.069   1
  -9   7  -4 7984.77 289.135   1
   7   9   4 13888.3 316.654   1
   9  -7  -4 13441.4 314.763   1
  -7  -9  -4 15546.2 323.841   1
   9  -7   6 7049.07 190.412   1
  -9   7  -6 4636.51 172.666   1
   9  -7  -6 7806.17 198.134   1
  -9   7   6 4829.79 175.826   1
   9  -7   8 4889.05 152.673   1
  -9   7  -8 3110.48 136.252   1
   7   9   8 4885.50 153.614   1
  -7  -9  -8 5478.24 159.222   1
   9  -7  10 2234.09 92.2469   1
  -9   7 -10 1512.77 80.4335   1
   9  -6   1 887.247 63.8208   1
  -9   6  -1 454.374 55.3021   1
  -6  -9  -1 1167.69 68.3508   1
   6   9   1 943.913 62.1975   1
   9  -6   3 874.052 63.6329   1
  -9   6   3 647.228 57.2312   1
  -6  -9  -3 1328.23 72.2886   1
  -9   6  -3 502.635 56.6535   1
   6   9   3 1151.62 67.2800   1
   9  -6  -3 971.765 64.0215   1
   9  -6   5 556.404 55.8046   1
  -6  -9  -5 946.352 64.8651   1
  -9   6  -5 427.635 54.0624   1
   6   9   5 884.681 61.7223   1
   9  -6  -5 662.623 56.4736   1
  -9   6   5 450.072 51.3427   1
   9  -6   7 281.446 44.6456   1
  -9   6  -7 191.965 42.8214   1
  -9   6  -9 41.8495 36.1832   1
   9  -6   9 61.3375 39.3714   1
  -6  -9  -9 134.245 42.7392   1
   6   9   9 126.015 39.9169   1
  -9   6 -11 35.4075 31.4979   1
   9  -6  11 45.9225 33.2345   1
   9  -5   0 3895.09 134.159   1
  -9   5   0 2528.18 120.758   1
   5   9   0 4100.59 133.972   1
  -5  -9   0 4743.13 142.224   1
   9  -5   2 2697.33 118.566   1
  -5  -9   2 4388.30 132.099   1
  -9   5   2 2346.97 112.045   1
  -9   5  -2 2172.23 112.182   1
   5   9   2 4030.10 129.608   1
   5   9  -2 4001.26 126.075   1
  -5  -9  -2 4482.34 136.374   1
   9  -5  -2 2997.22 118.754   1
   9  -5   4 4204.09 146.792   1
  -9   5   4 3432.80 137.472   1
  -9   5  -4 2902.41 135.461   1
  -5  -9  -4 6327.16 164.853   1
   5   9   4 5453.88 157.495   1
   9  -5  -4 4834.99 150.180   1
   9  -5   6 3333.23 132.689   1
  -5  -9  -6 5797.98 157.107   1
  -9   5  -6 2875.91 128.056   1
   5   9   6 5274.12 151.817   1
   9  -5  -6 3965.13 136.317   1
  -9   5   6 3168.81 129.092   1
   9  -5   8 3808.62 141.069   1
  -5  -9  -8 5855.80 159.821   1
   5   9   8 5093.61 152.760   1
  -9   5  -8 2910.16 132.958   1
  -5  -9 -12 2033.22 87.0216   1
   9  -5  12 1893.40 84.7658   1
   5   9  12 1633.30 80.8743   1
  -9   5 -12 1445.91 77.6652   1
   9  -4  -1 1915.72 85.7495   1
   9  -4   1 1934.34 87.6502   1
  -9   4   1 1133.56 75.2492   1
  -9   4  -1 1131.35 75.7014   1
  -4  -9  -1 2096.08 90.4207   1
   4   9   1 1622.29 81.8225   1
   4   9  -1 1739.34 82.2563   1
  -4  -9   1 1838.63 84.8175   1
   9  -4   3 1498.22 81.5095   1
  -4  -9  -3 2077.52 89.5869   1
  -9   4  -3 973.122 72.5326   1
   4   9   3 1588.05 80.7286   1
   4   9  -3 1639.92 78.0874   1
  -4  -9   3 1728.82 80.0672   1
  -9   4   5 828.837 61.1481   1
  -9   4  -5 661.927 62.7646   1
   4   9  -5 1266.08 65.5202   1
  -4  -9   5 1436.09 69.2956   1
   9  -4  -5 1159.45 67.5355   1
   9  -4   7 494.387 52.5440   1
  -4  -9  -7 730.435 59.2437   1
   4   9   7 641.096 54.6129   1
  -9   4  -7 310.585 48.2200   1
   9  -4   9 199.479 43.0686   1
  -4  -9  -9 271.332 48.2425   1
  -9   4  -9 134.375 42.5955   1
   4   9   9 238.292 44.9088   1
   9  -4  11 52.1525 37.6899   1
  -9   4 -11 37.2528 36.4179   1
   4   9  11 55.6899 33.6792   1
  -4  -9 -11 52.2537 36.8847   1
   9  -4  13 20.8645 32.9328   1
  -9   4 -13 3.84306 30.0978   1
  -4  -9 -13 49.3840 35.3289   1
   4   9  13 22.4970 34.8738   1
   9  -3  -2 22628.7 560.996   1
  -3  -9   2 30468.8 578.749   1
   3   9  -2 27366.4 571.540   1
   9  -3   2 21246.0 561.638   1
  -9   3   2 16652.1 548.098   1
  -9   3  -2 17761.5 553.630   1
   3   9   2 27172.5 574.199   1
  -3  -9  -2 31711.8 584.800   1
   9  -3   4 19907.0 503.705   1
  -9   3   4 15362.7 486.070   1
  -3  -9   4 25345.7 512.137   1
  -3  -9  -4 26457.4 520.557   1
  -9   3  -4 15296.6 491.325   1
   3   9   4 21542.3 507.044   1
   3   9  -4 22237.8 504.230   1
   9  -3  -4 22579.4 502.994   1
  -3  -9  -6 16428.2 352.492   1
   9  -3  -6 12544.7 330.344   1
   3   9   6 13683.0 342.375   1
  -3  -9   6 15299.7 341.401   1
   3   9  -6 13039.9 332.632   1
  -9   3   6 9075.93 317.714   1
   9  -3   8 9898.30 267.514   1
   3   9   8 9423.74 265.698   1
  -3  -9  -8 11712.0 276.658   1
  -9   3  -8 7747.48 256.177   1
   9  -3  10 4720.46 156.974   1
  -3  -9 -10 5975.75 167.764   1
   3   9  10 4851.04 159.259   1
  -9   3 -10 3797.34 149.385   1
  -3  -9 -12 3739.50 126.914   1
   9  -3  12 4103.42 130.427   1
   3   9  12 2652.51 116.590   1
  -9   3 -12 2910.62 118.020   1
   9  -3  14 1380.34 73.2243   1
   3   9  14 876.886 63.6149   1
  -9   3 -14 1044.05 66.1479   1
  -3  -9 -14 1140.12 66.3333   1
   9  -2  -1 1124.20 64.4507   1
   9  -2   1 1016.32 64.2127   1
  -9   2   1 698.338 57.1282   1
  -9   2  -1 607.868 57.3458   1
   2   9   1 967.627 65.0923   1
  -2  -9  -1 1094.87 68.2418   1
   9  -2   3 920.064 62.4305   1
  -2  -9   3 945.165 63.5440   1
  -2  -9  -3 990.491 66.3008   1
  -9   2   3 599.529 49.6317   1
  -9   2  -3 554.797 55.9496   1
   2   9  -3 842.212 59.7502   1
   9  -2  -3 963.756 56.5134   1
  -9   2   5 490.226 44.8060   1
   9  -2   5 638.945 56.0817   1
   2   9   5 892.129 61.7704   1
  -9   2  -5 434.770 52.2981   1
  -2  -9   5 857.170 60.1362   1
   2   9  -5 786.343 56.8403   1
   9  -2  -5 644.637 49.2494   1
   9  -2   7 290.535 48.5364   1
  -2  -9  -7 470.923 53.9535   1
   2   9   7 374.876 49.5326   1
  -2  -9   7 374.531 46.7554   1
   2   9  -7 344.495 42.9566   1
   9  -2   9 156.597 42.5537   1
  -9   2  -9 127.092 43.0722   1
   2   9   9 162.096 40.7117   1
  -2  -9  -9 176.846 42.3597   1
  -2  -9 -11 75.0659 39.7580   1
   9  -2  11 39.5996 35.6568   1
  -9   2 -11 17.4730 34.7251   1
   2   9  11 27.3518 37.8919   1
  -2  -9 -13 2.25636 32.0377   1
   9  -2  13 21.9235 34.5120   1
  -9   2 -13 11.8048 31.9486   1
   2   9  13 7.89898 32.8896   1
   9  -1   0 18674.8 432.989   1
  -9   1   0 13266.4 418.439   1
  -1  -9   0 20897.7 444.424   1
   1   9   0 18300.7 436.006   1
   9  -1  -2 13454.3 334.048   1
   9  -1   2 12729.7 340.954   1
  -9   1   2 10599.7 324.638   1
  -9   1  -2 10161.8 330.234   1
   1   9   2 16983.9 355.307   1
  -1  -9  -2 18935.4 364.770   1
  -1  -9   4 18174.8 407.703   1
   9  -1   4 15529.6 400.712   1
  -9   1   4 11983.2 378.481   1
  -9   1  -4 12840.0 392.574   1
   1   9   4 17773.2 408.759   1
  -1  -9  -4 20901.3 419.213   1
   1   9  -4 16730.1 402.423   1
   9  -1  -4 17040.8 391.180   1
   9  -1   6 9770.88 268.573   1
  -9   1  -6 9372.06 266.436   1
   9  -1   8 10694.7 290.278   1
  -1  -9  -8 13394.3 307.020   1
   1   9   8 10734.2 294.729   1
  -9   1  -8 8772.41 281.314   1
   1   9  10 5861.33 201.846   1
  -1  -9 -10 7670.15 211.132   1
  -1  -9 -12 4790.10 148.587   1
   1   9  12 3640.81 139.672   1
   9  -1  14 1455.56 74.9608   1
  -9   1 -14 1195.68 70.3896   1
   0  -9  -1 2.80800 40.2240   1
  -9   0   1-9.28854 31.2704   1
   0   9   1 20.7681 37.5156   1
   9   0  -1-2.78308 31.4134   1
   9   0   1 3.57024 31.0543   1
   0   9  -1 13.3428 35.2919   1
  -9   0  -1-24.0008 33.1373   1
   0  -9   1-16.6906 38.4686   1
   9   0  -3 64.7812 31.2450   1
  -9   0   3 127.693 32.8232   1
   9   0   3 71.4457 38.6707   1
   0   9   3 159.565 47.8009   1
   0  -9  -3 169.311 48.1615   1
  -9   0  -3 63.3320 39.2186   1
   0  -9   3 173.466 42.0178   1
   0   9  -3 249.964 42.7840   1
   0  -9   5 43.7928 37.8169   1
   9   0  -5 87.0292 23.2967   1
   0   9   5 15.0550 40.4002   1
   9   0   5 26.2688 37.9170   1
   0   9  -5 54.9618 37.0701   1
  -9   0   5 44.2403 21.6618   1
   0  -9  -5 6.37068 42.2725   1
  -9   0  -5 40.0088 38.9075   1
  -9   0  -7 129.220 42.3228   1
   0   9  -7 227.244 40.8653   1
   9   0   7 140.288 43.1682   1
   0   9   7 151.403 43.9091   1
   0  -9  -7 161.963 44.0639   1
   0  -9   7 203.399 41.6772   1
   0   9   9-19.4776 39.9235   1
  -9   0  -9 36.7308 38.4127   1
   0  -9   9 126.943 40.9278   1
   0  -9  -9 16.5234 38.5633   1
   9   0   9 24.2892 36.9928   1
   0   9  -9 58.9587 35.5424   1
   0   9  11 33.4625 38.7757   1
  -9   0 -11 22.2620 38.9297   1
   0  -9 -11 25.8221 36.8714   1
   9   0  11 51.5435 38.1943   1
  -9   0 -13 14.1631 32.6162   1
   0  -9 -13 16.0751 34.4974   1
   9   0  13 24.3579 32.3508   1
   0   9  13 30.4393 35.4067   1
   0  -9 -15 8.79399 31.0661   1
   0   9  15 10.4479 33.1407   1
   9   1   0 18308.1 417.965   1
  -9  -1   0 14347.1 407.269   1
   1  -9   0 19295.1 430.555   1
  -1   9   0 15690.7 419.963   1
   9   1  -2 13389.1 313.037   1
   9   1   2 13611.2 334.094   1
  -9  -1   2 11363.0 307.561   1
  -9  -1  -2 10187.6 315.557   1
   1  -9  -2 13732.7 333.275   1
  -1   9   2 11042.1 323.143   1
   1  -9   2 13829.7 330.250   1
  -1   9  -4 14586.0 370.680   1
  -9  -1   4 11233.8 337.079   1
   9   1   4 16992.7 383.330   1
  -1   9   4 13807.8 370.489   1
   1  -9  -4 16913.6 380.980   1
  -9  -1  -4 13966.7 369.621   1
   1  -9   4 17438.5 381.192   1
   9   1  -4 15139.4 344.903   1
  -1   9  -6 10409.8 305.808   1
   9   1   6 13612.2 324.674   1
  -9  -1  -6 11197.2 312.131   1
   1  -9   6 11993.7 313.339   1
  -1   9  -8 9281.88 279.564   1
   9   1   8 12395.7 295.027   1
  -1   9   8 9185.10 282.648   1
   1  -9  -8 11714.2 293.739   1
   1  -9   8 10964.2 288.426   1
  -9  -1  -8 9927.35 283.879   1
   1  -9  10 6041.80 183.153   1
  -1   9 -10 5239.09 175.874   1
   9   1  12 4113.93 137.714   1
  -1   9  12 3068.07 131.659   1
   1  -9 -12 4624.50 143.512   1
  -9  -1 -12 3398.37 131.331   1
   9   1  14 1350.84 74.5967   1
   1  -9 -14 1783.29 82.9480   1
  -1   9  14 1486.88 79.2979   1
  -9  -1 -14 1272.19 74.0519   1
  -2   9  -1 826.895 61.2182   1
   9   2  -1 1073.15 56.6901   1
   9   2   1 1039.91 60.1701   1
  -9  -2   1 694.575 50.2045   1
  -9  -2  -1 718.881 55.1513   1
   2  -9  -1 912.603 67.1880   1
   2  -9   1 963.311 65.6872   1
  -2   9   1 732.648 62.2376   1
  -2   9  -3 715.683 58.1629   1
   9   2  -3 976.063 47.1328   1
   9   2   3 936.258 61.6457   1
  -9  -2   3 740.219 43.0740   1
   2  -9  -3 848.451 65.4055   1
  -2   9   3 724.081 61.1455   1
  -9  -2  -3 675.402 57.6020   1
  -9  -2  -5 621.714 56.9023   1
  -2   9  -5 601.570 54.0678   1
   9   2   5 881.550 62.2582   1
   2  -9  -5 540.355 57.3011   1
  -2   9   5 409.976 54.7401   1
   2  -9   5 769.186 59.5789   1
  -9  -2  -7 274.907 46.7596   1
  -2   9  -7 291.362 44.6447   1
  -2   9   7 155.429 43.9983   1
   9   2   7 433.337 50.2936   1
   2  -9  -7 247.788 46.7029   1
   2  -9   7 322.145 48.1364   1
  -2   9   9 100.163 42.2061   1
   2  -9   9 119.671 41.6114   1
  -2   9  -9 108.125 37.9773   1
   9   2   9 142.606 43.0265   1
  -9  -2  -9 123.664 42.9607   1
   2  -9  -9 72.2740 38.2747   1
  -2   9  11 34.2902 37.7452   1
   2  -9  11 41.6893 36.9807   1
   2  -9 -11 47.8594 36.4329   1
  -9  -2 -11 50.3793 36.9722   1
   9   2  11 18.1530 33.4050   1
  -2   9 -11 46.5611 33.7407   1
  -9  -2 -13 17.4826 35.3077   1
   9   2  13 14.6602 33.8386   1
   2  -9 -13 18.0171 33.4150   1
  -2   9  13 15.7016 35.1983   1
   2  -9 -15 17.3852 31.4579   1
  -3   9   0 20626.7 613.529   1
   9   3   0 31347.3 624.003   1
  -9  -3   0 24978.0 614.027   1
   3  -9   0 27954.9 629.453   1
  -9  -3  -2 21291.8 510.218   1
  -3   9  -2 16716.9 501.228   1
   9   3  -2 25377.2 499.228   1
   9   3   2 25738.8 521.728   1
  -9  -3   2 20278.6 490.572   1
   3  -9  -2 21579.3 515.881   1
  -3   9   2 15217.2 498.818   1
   3  -9   2 21735.4 515.144   1
  -9  -3  -4 18734.2 463.100   1
  -3   9  -4 15792.8 452.611   1
   9   3   4 21793.6 470.994   1
   3  -9  -4 21266.0 469.734   1
  -3   9   4 14558.2 450.286   1
   3  -9   4 20684.8 467.671   1
  -9  -3  -6 11886.7 306.748   1
   9   3   6 13470.0 313.731   1
  -3   9   6 8283.32 293.417   1
   3  -9  -6 12440.4 309.878   1
  -9  -3  -8 8870.13 249.328   1
  -3   9  -8 7541.46 240.728   1
   9   3   8 9833.48 254.344   1
  -3   9   8 8134.12 251.045   1
   3  -9   8 9659.60 253.080   1
   3  -9  10 4829.75 156.578   1
  -9  -3 -10 4404.49 152.266   1
  -3   9 -10 3985.65 147.675   1
   9   3  10 4860.98 156.532   1
  -3   9  10 4134.86 156.639   1
   3  -9 -10 4961.10 165.410   1
   3  -9  12 3241.73 124.784   1
   3  -9 -12 4805.40 139.730   1
  -3   9 -12 2725.09 117.972   1
   9   3  12 3164.97 121.167   1
  -3   9  12 3378.68 128.806   1
  -9  -3 -14 976.349 64.6914   1
   9   3  14 940.426 63.9261   1
   3  -9 -14 1938.57 82.7818   1
  -4   9   1 1088.68 72.4966   1
  -9  -4  -1 1461.24 74.7805   1
  -4   9  -1 1201.97 73.1104   1
   9   4  -1 1828.56 73.0310   1
   9   4   1 1707.02 77.6357   1
   4  -9  -1 1655.35 82.8478   1
  -9  -4   1 1376.81 66.5738   1
   4  -9   1 1673.88 82.7074   1
   4  -9  -5 1002.66 68.3014   1
  -9  -4  -5 1108.99 69.1118   1
  -4   9  -5 844.802 63.6666   1
   9   4   5 1394.42 73.4946   1
  -4   9   5 681.211 61.7615   1
   4  -9   5 1121.62 70.5749   1
  -9  -4  -7 573.909 54.2051   1
  -4   9  -7 351.190 48.0428   1
   9   4   7 653.420 55.9327   1
  -4   9   7 311.101 48.9817   1
   4  -9  -7 427.821 51.6912   1
   4  -9   7 401.952 51.0811   1
   4  -9   9 166.891 42.1575   1
  -4   9  -9 141.082 38.0346   1
  -9  -4 -11 70.3269 38.0900   1
  -4   9  11 24.4049 38.1562   1
   4  -9  11 69.9884 37.7844   1
   9   4  11 71.4541 36.7763   1
  -4   9 -11 43.0522 32.7267   1
   4  -9 -13 18.7755 34.0246   1
  -9  -4 -13 10.5055 35.8434   1
  -5   9   0 2379.88 111.253   1
  -9  -5   0 3285.76 117.556   1
   9   5   0 3818.36 120.504   1
   5  -9   0 3511.92 124.326   1
  -5   9  -2 2099.95 101.945   1
  -9  -5  -2 3538.94 118.063   1
   9   5   2 3989.89 122.138   1
   5  -9  -2 2821.02 113.296   1
   5  -9   2 2807.38 112.232   1
  -5   9   2 1955.91 101.699   1
  -5   9  -4 3103.41 131.136   1
  -9  -5  -4 4862.54 149.640   1
   9   5   4 5365.27 153.322   1
   5  -9  -4 4437.83 145.961   1
  -5   9   4 2870.25 130.393   1
   5  -9   4 4401.72 144.848   1
  -5   9  -6 2707.98 119.177   1
  -9  -5  -6 4685.15 141.353   1
   9   5   6 5377.48 147.236   1
   5  -9  -6 3487.00 129.347   1
  -5   9   6 2265.82 116.129   1
   5  -9   6 3620.17 130.464   1
   5  -9   8 3800.95 134.510   1
  -9  -5  -8 4586.91 142.452   1
  -5   9  -8 2951.46 124.040   1
   9   5   8 4895.12 144.832   1
  -5   9   8 2326.57 119.478   1
   5  -9  -8 3974.44 137.666   1
   5  -9  10 2229.16 99.0193   1
  -9  -5 -10 2822.33 105.209   1
  -5   9 -10 1793.76 90.7070   1
   9   5  10 2674.27 102.445   1
  -5   9  10 1290.28 86.4129   1
   5  -9 -10 2375.52 101.680   1
   5  -9  12 1853.66 85.0617   1
  -5   9 -12 1338.43 74.8112   1
  -6   9   1 563.058 55.5343   1
  -6   9  -1 553.524 55.4862   1
   9   6   1 818.133 56.4696   1
   6  -9  -1 875.709 62.1349   1
   6  -9   1 820.127 62.8368   1
  -6   9  -3 610.909 58.3961   1
  -9  -6  -3 1062.13 66.5429   1
   9   6   3 1179.62 67.4408   1
   6  -9   3 849.151 64.9254   1
   6  -9  -5 535.234 53.2968   1
  -6   9   5 383.072 50.1949   1
   6  -9   7 223.522 48.9652   1
  -6   9  -7 207.613 43.5609   1
  -9  -6  -7 466.270 52.0168   1
   9   6   7 533.462 51.7007   1
  -6   9   9 46.8137 38.1773   1
   9   6   9 120.153 37.9997   1
  -9  -6  -9 104.218 40.3684   1
   6  -9  -9 109.746 38.3138   1
   6  -9  11 37.5067 34.5654   1
  -9  -6 -11 31.2057 36.0029   1
   9   6  11 23.8159 33.2526   1
  -6   9 -11 23.2880 31.0723   1
  -7   9   0 11800.2 358.699   1
   7  -9   0 17589.8 381.252   1
  -7   9   2 9006.48 286.236   1
  -7   9  -2 9910.95 289.386   1
   7  -9  -2 15196.8 314.667   1
  -7   9  -4 8073.82 260.666   1
   7  -9   4 12263.2 282.077   1
  -7   9  -6 4651.40 180.502   1
   9   7   6 8227.20 208.084   1
  -9  -7  -6 7729.01 205.683   1
   7  -9  -6 7739.70 204.673   1
  -7   9   6 4645.57 182.718   1
   7  -9   6 6930.05 197.815   1
   7  -9   8 4596.09 147.385   1
  -7   9  -8 2968.58 130.566   1
   9   7   8 4920.03 149.952   1
  -9  -7  -8 5000.62 151.385   1
  -7   9   8 3011.05 133.091   1
   7  -9  -8 5017.06 152.355   1
   7  -9  10 2216.38 93.3412   1
  -7   9 -10 1393.46 79.3405   1
  -9  -7 -10 2216.02 95.0643   1
   9   7  10 2173.54 93.4024   1
   8  -9   1 109.538 37.3036   1
  -8   9   1 80.2230 37.5032   1
   8  -9  -3 130.494 39.8094   1
   8  -9   3 161.392 40.1731   1
  -8   9   3 170.294 43.3938   1
  -8   9  -3 119.040 39.3773   1
   8  -9  -5 140.095 39.2636   1
   8  -9   5 118.040 36.8115   1
  -8   9   5 105.595 39.9664   1
  -8   9  -5 82.5188 35.7946   1
   8  -9  -7 51.4902 34.9820   1
  -9  -8  -7 153.419 40.8157   1
   8  -9   7 49.9994 37.5079   1
  -8   9   7 47.3405 36.1936   1
   9   8   7 136.449 37.8972   1
  -8   9  -7 20.7848 33.3950   1
   8  -9   9 24.5345 34.6904   1
   9   8   9 32.1714 32.5876   1
  -8   9  -9 13.0824 30.5365   1
  -9  -8  -9 35.0742 36.4044   1
  -9   9  -2 153.120 42.3596   1
   9  -9   2 190.889 42.3762   1
  -9   9  -4 287.012 44.3612   1
   9  -9   4 351.764 45.5831   1
  -9   9  -6 343.441 47.0321   1
   9  -9   6 491.989 50.7891   1
  10  -9  -1 48.6395 32.7788   1
 -10   9   1 37.2233 35.2319   1
  10  -9  -3 60.8243 34.5042   1
  10  -9   3 86.6149 36.1371   1
 -10   9   3 28.9908 35.0485   1
 -10   9  -3 39.1868 35.1331   1
 -10   8   2 253.193 44.2658   1
 -10   8  -2 194.376 40.6193   1
  10  -8  -2 341.633 46.0449   1
  10  -8   2 286.215 42.9168   1
 -10   8  -4 327.004 48.0241   1
  10  -8   4 531.927 51.7014   1
  10  -8   6 538.775 49.8481   1
 -10   8  -6 412.182 46.8077   1
 -10   7   1 332.773 45.7127   1
 -10   7  -1 207.877 42.8120   1
  10  -7  -1 448.166 48.0886   1
  10  -7   1 449.421 47.9290   1
  10  -7   3 369.221 47.5197   1
 -10   7  -3 234.353 44.7569   1
  10  -7   5 225.133 43.0956   1
   7  10   5 424.955 47.8315   1
  -7 -10  -5 471.636 51.8146   1
 -10   7  -5 140.552 41.5729   1
 -10   7  -7 81.2515 36.2596   1
  10  -7   7 108.120 36.8381   1
   7  10   7 184.687 40.2724   1
  -7 -10  -7 207.784 43.1465   1
 -10   7  -9 64.0984 34.6829   1
  10  -7   9 54.3973 35.1201   1
  -7 -10  -9 66.1942 36.7104   1
   7  10   9 53.2757 31.7672   1
 -10   6   0 8937.18 278.345   1
  10  -6   0 12292.2 294.368   1
  10  -6   2 9787.28 275.023   1
 -10   6   2 7810.37 264.890   1
 -10   6  -2 7241.10 262.144   1
  -6 -10  -2 14739.3 300.064   1
   6  10   2 13530.8 292.941   1
  10  -6  -2 10166.8 277.340   1
 -10   6   4 6138.71 221.280   1
  10  -6   4 7938.49 232.299   1
  -6 -10  -4 11522.8 252.758   1
 -10   6  -4 6061.01 219.919   1
   6  10   4 10073.4 243.578   1
  10  -6  -4 8735.56 238.212   1
  -6 -10  -6 6913.43 181.091   1
  10  -6   6 5019.46 164.641   1
 -10   6  -6 3629.74 153.464   1
   6  10   6 6116.26 174.912   1
  10  -6   8 3439.76 124.013   1
 -10   6  -8 2432.78 112.695   1
   6  10   8 3548.98 124.517   1
  -6 -10  -8 4213.98 132.325   1
  10  -6  10 1714.08 80.2045   1
   6  10  10 1581.43 79.8461   1
 -10   6 -10 1217.23 71.8967   1
  -6 -10 -10 2025.34 86.2667   1
  10  -5   1 1056.58 66.4615   1
  -5 -10   1 1201.58 69.8102   1
 -10   5  -1 577.429 58.0476   1
   5  10   1 899.307 63.1413   1
   5  10  -1 897.461 62.3182   1
  -5 -10  -1 1149.19 70.3882   1
  10  -5   3 864.519 62.8994   1
 -10   5   3 621.487 56.9362   1
 -10   5  -3 413.286 54.2623   1
   5  10   3 946.683 63.6759   1
  -5 -10  -3 1145.12 69.8515   1
  10  -5  -3 893.860 62.5586   1
  -5 -10  -5 826.001 62.8757   1
   5  10   5 734.571 58.5557   1
  -5 -10  -7 372.964 50.1654   1
   5  10   7 322.423 45.6262   1
  -5 -10  -9 98.2939 38.7869   1
 -10   5  -9 78.9579 39.4128   1
  10  -5   9 88.5976 38.8406   1
   5  10   9 79.8610 35.5084   1
  10  -5  11 40.7709 32.0055   1
 -10   5 -11 26.6388 31.2646   1
  -5 -10 -11 35.0841 35.1312   1
   5  10  11 44.3895 32.6328   1
  10  -4   0 6926.37 194.979   1
 -10   4   0 4487.65 177.787   1
  -4 -10   0 8081.11 203.470   1
   4  10   0 6165.15 188.835   1
 -10   4   2 3756.17 159.580   1
  -4 -10  -2 6784.44 185.695   1
   4  10   2 5614.55 175.215   1
   4  10  -2 5433.70 172.434   1
  -4 -10   2 6421.52 180.719   1
  10  -4  -2 5800.14 176.256   1
  10  -4   4 6369.22 187.774   1
 -10   4   4 4538.63 170.858   1
 -10   4  -4 4186.31 171.100   1
   4  10   4 6486.80 186.988   1
  10  -4  -4 7009.60 189.180   1
  -4 -10  -4 7782.59 196.549   1
   4  10   6 5407.47 182.114   1
  -4 -10  -6 6500.96 189.652   1
  10  -4   8 4370.00 157.329   1
  -4 -10  -8 5882.56 169.880   1
   4  10   8 4900.90 161.606   1
  10  -4  10 2330.99 100.847   1
  -4 -10 -10 3342.91 113.677   1
   4  10  10 2700.31 104.786   1
 -10   4 -10 1924.30 95.8120   1
  10  -4  12 1852.32 82.4183   1
   4  10  12 1507.18 78.9217   1
 -10   4 -12 1279.08 73.4141   1
  -4 -10 -12 2075.64 85.9843   1
  10  -3  -1 1371.88 72.3547   1
  10  -3   1 1369.36 72.5022   1
 -10   3   1 774.801 61.3571   1
 -10   3  -1 788.166 63.3277   1
   3  10   1 1039.11 66.2981   1
   3  10  -1 976.896 64.7278   1
  -3 -10   1 1132.82 70.9384   1
  -3 -10  -1 1247.85 71.7079   1
  10  -3   3 1045.20 66.5184   1
 -10   3  -3 677.514 60.8632   1
   3  10  -3 926.276 62.3326   1
  -3 -10   3 1035.77 66.5295   1
  10  -3   5 567.682 55.8300   1
  -3 -10  -5 845.231 62.0278   1
 -10   3  -5 348.139 51.9674   1
   3  10   5 628.744 55.5238   1
   3  10  -5 632.318 53.6797   1
  -3 -10   5 707.770 56.8984   1
  10  -3   7 280.645 43.6235   1
 -10   3  -7 168.529 42.1236   1
  10  -3   9 62.3731 36.0948   1
  -3 -10  -9 123.775 42.6782   1
 -10   3  -9 29.7402 36.5835   1
   3  10   9 90.0482 39.0349   1
  -3 -10 -11 52.8689 37.7105   1
  10  -3  11 9.57865 32.9597   1
 -10   3 -11 32.1230 34.0138   1
   3  10  11 50.0521 35.9230   1
  10  -2   0 11411.5 328.793   1
 -10   2   0 9939.41 322.887   1
   2  10   0 14700.0 343.342   1
  -2 -10   0 16739.2 350.902   1
  10  -2  -2 9136.78 280.747   1
  10  -2   2 8197.11 279.412   1
 -10   2   2 7995.99 273.909   1
 -10   2  -2 8101.92 278.731   1
   2  10   2 14544.3 309.015   1
  -2 -10  -2 15701.5 313.358   1
  -2 -10   2 14668.3 307.609   1
   2  10  -2 13423.5 302.507   1
  10  -2   4 8773.53 276.425   1
 -10   2  -4 7596.15 271.390   1
   2  10   4 12262.5 292.182   1
  -2 -10  -4 14149.9 301.670   1
  -2 -10   4 11389.0 287.233   1
   2  10  -4 10198.4 281.415   1
  10  -2   6 5123.39 194.660   1
  -2 -10  -6 9904.93 225.448   1
   2  10   6 8493.69 215.880   1
 -10   2  -6 5035.11 194.228   1
  -2 -10   6 7872.33 211.455   1
   2  10  -6 6957.79 204.429   1
   2  10   8 5724.00 186.750   1
  -2 -10  -8 6735.37 194.677   1
  10  -2  10 3153.55 116.784   1
 -10   2 -10 2730.88 112.744   1
  10  -1  -1 1241.33 67.4921   1
 -10   1   1 804.386 59.6745   1
   1  10   1 971.793 65.6748   1
  -1 -10  -1 1172.14 71.5105   1
  -1 -10   1 1041.54 69.5104   1
   1  10  -1 913.856 65.3128   1
  10  -1   3 887.878 62.2505   1
 -10   1   3 544.983 48.8653   1
 -10   1  -3 551.121 56.5373   1
  -1 -10   3 816.595 61.9441   1
   1  10  -3 702.483 58.8832   1
  10  -1  -3 819.911 53.8036   1
   1  10   5 455.567 54.0112   1
  -1 -10  -5 456.317 55.3388   1
  -1 -10   5 510.737 52.2052   1
   1  10  -5 480.830 49.1553   1
  -1 -10   7 197.102 42.9071   1
   1  10   7 146.295 39.9157   1
  10  -1   7 185.298 43.0227   1
  -1 -10  -7 192.341 43.7111   1
 -10   1  -7 129.978 42.3352   1
   1  10  -7 185.572 40.5718   1
   1  10   9 78.8526 37.1827   1
  10  -1   9 57.8003 37.6476   1
  -1 -10  -9 57.8257 37.7663   1
 -10   1  -9 43.0724 38.4707   1
  10  -1  11-0.57303 32.3443   1
  -1 -10 -11 27.3833 37.1174   1
 -10   1 -11 5.73210 34.0809   1
   1  10  11 15.4053 36.2800   1
  -1 -10 -13-3.28254 30.8374   1
  10  -1  13 11.9808 30.6105   1
 -10   1 -13 23.4200 31.6459   1
   1  10  13 11.4920 33.4392   1
  10   0   0 17683.7 380.316   1
 -10   0   0 11976.6 361.654   1
   0 -10   0 16670.8 382.562   1
   0  10   0 12913.2 368.793   1
  10   0  -2 13127.1 304.397   1
  10   0   2 13153.1 313.910   1
 -10   0   2 9598.37 291.265   1
 -10   0  -2 9598.19 299.249   1
   0 -10  -2 13360.9 316.147   1
   0  10   2 10313.1 303.943   1
   0 -10   2 13461.8 316.610   1
   0  10  -2 10772.4 304.433   1
  10   0   4 15389.3 350.870   1
 -10   0  -4 11114.3 334.941   1
   0  10   4 11580.4 337.900   1
   0 -10  -4 14768.9 350.026   1
   0 -10   4 14291.8 348.312   1
   0  10  -4 11966.9 338.515   1
   0  10  -6 8866.55 258.268   1
  10   0   6 10115.6 266.117   1
   0  10   6 9125.13 262.919   1
   0 -10  -6 10523.2 270.558   1
 -10   0  -6 7913.10 255.094   1
   0 -10   6 10117.3 265.143   1
   0  10  -8 7798.76 236.552   1
  10   0   8 9190.58 244.837   1
   0  10   8 7729.19 237.344   1
   0 -10  -8 10289.3 251.190   1
 -10   0  -8 6926.43 232.101   1
   0 -10   8 9067.10 243.891   1
   0 -10 -10 6159.07 171.454   1
  10   0  10 5308.72 164.684   1
   0  10  10 4557.54 162.865   1
 -10   0 -10 4114.81 154.822   1
  10   0  12 3472.73 120.002   1
 -10   0 -12 2660.94 111.300   1
  10   1  -1 1222.60 63.9075   1
  10   1   1 1231.72 67.3482   1
 -10  -1   1 818.461 56.0380   1
 -10  -1  -1 770.430 60.1873   1
   1 -10  -1 1084.44 68.6871   1
   1 -10   1 1004.64 70.0388   1
  -1  10   1 881.096 62.4749   1
  -1  10  -1 798.422 63.7206   1
  10   1   3 941.250 62.1110   1
 -10  -1  -3 591.963 54.5634   1
   1 -10  -3 769.276 61.3394   1
  -1  10   3 600.587 55.4975   1
   1 -10   3 787.539 62.0411   1
  -1  10  -3 610.527 55.4860   1
  -1  10  -5 418.506 49.6662   1
  10   1   5 623.277 54.2729   1
  -1  10   5 362.971 50.1717   1
   1 -10  -5 451.393 53.1746   1
 -10  -1  -5 377.084 48.9933   1
   1 -10   5 481.722 52.9026   1
  10   1   7 217.656 41.7046   1
  -1  10   7 131.487 43.2400   1
 -10  -1  -7 171.757 43.1560   1
   1 -10  -7 123.810 42.0840   1
  -1  10   9 55.0407 37.8739   1
   1 -10   9 61.8856 37.4575   1
 -10  -1  -9 50.4406 38.0983   1
  10   1   9 44.4785 36.5755   1
  -1  10  -9 51.4143 34.4221   1
   1 -10  -9 49.7588 36.4590   1
  -1  10  11 27.5984 38.2781   1
 -10  -1 -11 15.5599 37.7106   1
  10   1  11 4.03231 34.8022   1
 -10  -1 -13 15.3119 35.0745   1
  10   1  13-2.18684 32.4439   1
   1 -10 -13 16.6555 32.5098   1
  -1  10  13 1.11093 33.4355   1
  10   2   0 13096.2 313.755   1
 -10  -2   0 10422.0 303.099   1
   2 -10  -2 8694.51 232.974   1
  -2  10   2 6217.49 218.952   1
  -2  10  -4 7854.48 242.352   1
  10   2   4 10905.4 263.492   1
   2 -10  -4 9477.62 252.559   1
  -2  10   4 6911.72 238.802   1
 -10  -2  -4 8655.62 248.449   1
   2 -10   4 9419.24 251.966   1
  -2  10  -6 4996.34 178.260   1
  10   2   6 7978.92 200.553   1
  -2  10   6 4501.55 179.476   1
   2 -10  -6 6293.03 190.248   1
   2 -10   6 6220.27 188.464   1
 -10  -2  -6 6566.94 190.613   1
  -2  10  -8 4748.51 162.756   1
  10   2   8 6130.12 174.607   1
  -2  10   8 4082.07 163.853   1
   2 -10  -8 5372.72 171.769   1
   2 -10   8 5537.67 170.444   1
 -10  -2  -8 4946.71 165.298   1
  -2  10 -10 2723.53 116.310   1
  10   2  10 3332.92 123.342   1
  -2  10  10 2921.76 125.175   1
   2 -10 -10 4191.65 131.768   1
   2 -10  10 3188.42 122.949   1
 -10  -2 -10 2923.14 119.917   1
   2 -10 -12 2986.61 106.696   1
  10   2  12 2290.28 96.4218   1
  -2  10  12 1941.15 99.3200   1
 -10  -2 -12 1962.60 92.5706   1
  -3  10  -1 806.780 63.0327   1
  10   3   1 1298.13 67.9474   1
 -10  -3  -1 896.001 60.3704   1
   3 -10  -1 1123.64 70.2758   1
   3 -10   1 1085.67 70.2293   1
  -3  10   1 783.901 61.6093   1
   3 -10  -3 907.450 67.3425   1
  -3  10  -3 728.730 59.0430   1
  10   3   3 1085.34 66.3973   1
  -3  10   3 599.874 59.6479   1
   3 -10   3 930.138 65.6004   1
 -10  -3  -3 787.086 60.9134   1
 -10  -3  -5 511.884 53.3400   1
  -3  10  -5 431.737 49.2049   1
  10   3   5 667.170 56.5794   1
   3 -10  -5 456.240 50.4188   1
  -3  10   5 367.760 49.4547   1
   3 -10   5 486.564 53.4933   1
 -10  -3  -7 239.235 45.7093   1
  10   3   7 344.962 47.5388   1
  -3  10  -7 176.048 40.3449   1
   3 -10   7 244.513 46.1545   1
  -3  10   9 32.2455 38.7597   1
   3 -10   9 78.3819 38.8183   1
  10   3   9 95.5927 37.8791   1
 -10  -3  -9 70.1143 38.6008   1
  -3  10  -9 44.5740 34.1887   1
   3 -10  -9 44.5355 38.1486   1
  -3  10  11 34.0395 37.5438   1
   3 -10 -11 45.5497 36.6488   1
 -10  -3 -11 32.6756 34.9321   1
  10   3  11 32.0849 33.6006   1
  -3  10 -11 25.3262 30.1113   1
  -3  10  13 12.8665 35.0046   1
   3 -10 -13 27.3940 33.2833   1
  -4  10   0 4092.14 155.553   1
   4 -10   0 6366.73 175.084   1
  -4  10  -2 3651.68 139.917   1
   4 -10  -2 5082.97 154.217   1
   4 -10   2 5257.77 156.027   1
  -4  10   2 3389.29 137.268   1
 -10  -4  -4 5665.98 174.646   1
  -4  10  -4 4256.26 162.579   1
  10   4   4 6929.55 183.741   1
   4 -10  -4 6062.74 177.789   1
  -4  10   4 4025.66 161.339   1
   4 -10   4 6208.84 178.882   1
 -10  -4  -6 4781.08 156.215   1
  -4  10  -6 3391.18 141.335   1
  10   4   6 5615.59 163.333   1
   4 -10   6 4458.48 153.211   1
 -10  -4  -8 4300.65 142.116   1
  -4  10  -8 3271.83 129.942   1
  10   4   8 5060.89 149.016   1
  -4  10   8 2508.58 125.593   1
   4 -10  -8 4280.35 142.640   1
   4 -10   8 4138.15 139.806   1
 -10  -4 -10 2592.45 103.781   1
  -4  10 -10 1888.11 92.4189   1
  10   4  10 2812.20 106.027   1
  -4  10  10 1634.38 91.0864   1
   4 -10 -10 2487.99 101.792   1
   4 -10  10 2388.32 100.985   1
 -10  -4 -12 1555.59 81.9538   1
  10   4  12 1688.30 82.7780   1
  -5  10  -1 584.604 53.6445   1
   5 -10  -1 913.775 63.8068   1
   5 -10   1 991.868 63.5589   1
  -5  10   1 601.984 56.5527   1
  10   5   3 1049.69 66.3640   1
 -10  -5  -5 663.079 56.8044   1
  -5  10  -5 337.305 48.5787   1
  10   5   5 775.828 58.4453   1
   5 -10   5 450.494 54.2426   1
  -5  10  -7 196.431 40.8519   1
  -5  10   7 141.383 43.4892   1
   5 -10  -7 211.948 43.9368   1
   5 -10   7 214.132 44.7618   1
   5 -10   9 90.0800 38.9542   1
  10   5   9 100.860 37.4363   1
  -5  10  -9 69.1130 35.3364   1
 -10  -5  -9 114.505 38.8737   1
  -5  10  11 18.9962 35.3448   1
  10   5  11 37.6045 33.5617   1
   5 -10 -11 20.1330 33.2732   1
 -10  -5 -11 26.9576 34.0773   1
  -6  10   0 7705.75 251.059   1
   6 -10   0 11558.5 271.888   1
  -6  10  -2 6830.51 221.155   1
   6 -10  -2 9763.07 239.760   1
   6 -10   2 9825.63 239.557   1
  -6  10   2 6210.90 218.185   1
  -6  10  -4 5641.82 193.629   1
   6 -10  -4 8599.89 215.217   1
  -6  10   4 5297.34 192.990   1
   6 -10   4 8325.25 212.074   1
  -6  10  -6 3389.46 139.725   1
 -10  -6  -6 5511.94 162.783   1
  10   6   6 6169.00 168.331   1
   6 -10  -6 5337.87 159.467   1
  -6  10   6 3087.53 138.960   1
   6 -10   6 5000.89 155.116   1
 -10  -6  -8 3546.64 123.491   1
  -6  10  -8 2250.14 105.079   1
  10   6   8 3818.17 125.625   1
  -6  10   8 2109.48 106.093   1
   6 -10  -8 3667.01 124.091   1
   6 -10   8 3336.72 118.764   1
  -6  10 -10 1170.32 69.7800   1
  -6  10  10 1038.10 69.9587   1
   6 -10 -10 1797.06 82.2801   1
   6 -10  10 1660.01 79.6306   1
  -7  10   1 239.593 42.7147   1
  -7  10  -1 273.917 45.7315   1
   7 -10  -1 385.804 45.9366   1
   7 -10   1 381.200 48.5621   1
   7 -10  -3 344.617 45.0175   1
  -7  10   3 246.031 41.9346   1
  -7  10  -5 196.005 39.2293   1
   7 -10   5 241.040 42.5993   1
   7 -10  -7 131.698 37.3338   1
   7 -10   7 107.468 40.3509   1
  -7  10   7 65.8937 35.6088   1
  -7  10  -7 80.5815 36.4493   1
   7 -10   9 47.3961 34.4817   1
  -7  10  -9 38.6651 30.9854   1
  -8  10   0 203.315 43.1846   1
   8 -10   0 339.489 47.3134   1
  -8  10  -2 211.573 44.0030   1
   8 -10  -2 298.389 43.9993   1
   8 -10   2 274.569 44.7455   1
  -8  10   2 191.349 42.2710   1
  -8  10  -4 346.214 45.5136   1
   8 -10  -4 506.077 49.8469   1
  -8  10   4 326.597 46.2499   1
   8 -10   4 496.073 50.5598   1
  -8  10  -6 364.124 44.7466   1
   8 -10  -6 572.838 53.0103   1
  -8  10   6 351.924 47.4999   1
   8 -10   6 514.723 50.5328   1
   9 -10   1 51.6642 33.0075   1
  -9  10  -1 53.3531 34.2587   1
   9 -10   3 59.0039 34.3357   1
  -9  10  -3 86.8627 37.2803   1
 -11   8  -3 103.858 38.8015   1
  11  -8   3 228.681 39.9709   1
 -11   7  -2 377.605 48.4609   1
  11  -7   2 669.598 54.4802   1
  11  -7   4 813.434 60.0030   1
 -11   7  -4 581.563 54.9235   1
  11  -7   6 770.832 56.7870   1
 -11   7  -6 579.984 53.0954   1
 -11   6   1 435.659 49.1494   1
 -11   6  -1 331.341 48.1134   1
  11  -6  -1 646.907 54.1466   1
  11  -6   1 666.230 54.9851   1
  11  -6   3 544.203 51.1198   1
 -11   6  -3 266.713 46.4299   1
  11  -6   5 319.371 45.1679   1
  -6 -11  -5 565.350 52.8189   1
 -11   6  -5 164.658 42.5178   1
   6  11   5 466.980 47.6144   1
  -6 -11  -7 201.097 42.4238   1
  11  -6   7 162.975 38.5212   1
 -11   6  -7 84.5763 36.4362   1
   6  11   7 226.841 39.7135   1
  -6 -11  -9 109.298 37.8009   1
   6  11   9 68.8400 32.8028   1
 -11   5   0 5283.61 181.936   1
  11  -5   0 6904.80 194.537   1
   5  11   2 7555.61 230.060   1
  -5 -11  -2 8563.66 238.008   1
  11  -5   4 4945.61 168.425   1
 -11   5  -4 3824.81 158.700   1
  -5 -11  -4 7136.91 185.063   1
   5  11   4 6240.02 177.098   1
  11  -5   6 2993.39 117.758   1
  -5 -11  -6 4235.24 132.389   1
 -11   5  -6 2242.04 109.153   1
   5  11   6 3711.45 126.077   1
  -5 -11  -8 2850.43 109.004   1
   5  11   8 2457.34 103.332   1
  11  -4   1 805.992 59.6315   1
 -11   4  -1 411.292 51.0122   1
  -4 -11  -1 761.472 60.1886   1
   4  11   1 631.064 54.6862   1
  11  -4   3 614.266 55.2234   1
  -4 -11  -3 777.473 61.3527   1
 -11   4  -3 338.652 50.5104   1
   4  11   3 619.796 54.2617   1
  11  -4   5 382.377 49.6321   1
 -11   4  -5 240.436 46.1584   1
   4  11   5 339.868 46.3503   1
  -4 -11  -5 465.750 51.0596   1
  11  -3   0 5782.19 176.066   1
 -11   3   0 4080.98 162.596   1
   3  11   0 5631.32 175.009   1
  -3 -11   0 6655.04 183.298   1
  11  -3   2 4574.98 160.244   1
 -11   3  -2 3381.79 150.039   1
   3  11   2 5207.86 164.090   1
   3  11  -2 4984.51 163.776   1
  -3 -11  -2 6302.58 173.153   1
  -3 -11   2 6118.28 173.097   1
  11  -3   4 5218.10 167.357   1
  -3 -11  -4 6571.46 178.982   1
 -11   3  -4 3771.66 154.916   1
   3  11   4 5442.83 168.964   1
  -3 -11  -6 5694.12 157.120   1
  11  -3   6 3745.24 138.049   1
 -11   3  -6 2914.75 130.012   1
   3  11   6 4729.94 147.422   1
  11  -3   8 3299.86 124.341   1
   3  11   8 3584.24 127.753   1
 -11   3  -8 2505.87 116.064   1
  -3 -11  -8 4362.82 136.721   1
  11  -3  10 1948.02 90.5609   1
  -3 -11 -10 2908.76 104.006   1
   3  11  10 2527.15 98.4934   1
 -11   3 -10 1575.76 86.5120   1
  11  -2  -1 279.592 43.6201   1
  11  -2   1 297.627 44.2948   1
 -11   2  -1 196.090 41.6191   1
   2  11   1 221.600 41.4538   1
   2  11  -1 224.091 43.0872   1
  -2 -11  -1 320.714 47.5370   1
  -2 -11   1 237.570 46.4181   1
  11  -2   3 231.701 43.4043   1
 -11   2  -3 134.712 43.3241   1
   2  11   3 205.198 40.9650   1
  -2 -11  -3 232.207 44.8809   1
  11  -2   5 162.535 41.4688   1
 -11   2  -5 66.8829 39.2835   1
   2  11   5 195.286 43.9497   1
  -2 -11  -5 298.413 49.2248   1
   2  11   7 107.787 40.1024   1
  11  -2   7 91.9525 37.2880   1
 -11   2  -7 39.7762 37.0639   1
  -2 -11  -7 96.7124 41.7677   1
  -2 -11  -9 76.5656 39.9978   1
  11  -2   9 28.7986 34.0638   1
 -11   2  -9 25.3537 34.8026   1
   2  11   9 46.4980 36.4789   1
  11  -2  11 21.4162 32.7320   1
  -2 -11 -11 14.6741 34.3697   1
 -11   2 -11-0.54930 33.2066   1
   2  11  11 29.3472 33.4058   1
  11  -1   0 7253.71 207.697   1
 -11   1   0 5352.26 194.886   1
   1  11   0 6873.64 204.977   1
  -1 -11   0 8394.33 215.482   1
  11  -1   2 5774.90 183.691   1
 -11   1  -2 4625.29 176.072   1
   1  11   2 6000.25 186.702   1
  -1 -11  -2 7614.91 198.660   1
  -1 -11   2 6799.79 193.140   1
   1  11  -2 5486.30 182.667   1
  11  -1   4 6111.21 186.832   1
 -11   1  -4 4768.35 177.881   1
  -1 -11  -4 7398.39 196.129   1
  11  -1   6 4196.00 146.237   1
   1  11   6 4575.59 150.365   1
 -11   1  -6 3534.10 140.236   1
  -1 -11   6 4782.21 151.942   1
   1  11  -6 4167.80 145.351   1
  11  -1   8 3976.40 133.349   1
 -11   1  -8 3081.67 124.023   1
  11  -1  10 2856.12 107.634   1
   1  11  10 2351.77 101.814   1
 -11   1 -10 2161.11 99.4838   1
  -1 -11 -10 2965.27 109.625   1
   0 -11  -1-28.5326 39.6511   1
   0 -11   1 24.4678 37.7169   1
   0  11   1-12.4752 36.1918   1
   0  11  -1 15.5037 34.6458   1
  11   0   1-4.09068 34.5920   1
 -11   0  -1 8.77889 34.6438   1
   0 -11   3-4.20302 37.1204   1
   0  11   3 9.47537 35.5165   1
  11   0   3-9.59844 33.6955   1
   0  11  -3 4.79870 33.4788   1
 -11   0  -3-1.20139 35.1969   1
   0 -11  -3 18.9591 38.5672   1
   0 -11   5 29.1071 37.9059   1
   0  11   5 34.7320 39.0398   1
  11   0   5 26.6008 37.1230   1
   0  11  -5 53.3008 35.7930   1
 -11   0  -5 12.7098 37.4673   1
   0 -11  -5 44.7488 40.9998   1
   0 -11   7 14.7678 36.7218   1
   0  11   7 26.1902 34.9054   1
  11   0   7-4.19701 34.6543   1
   0  11  -7 15.3662 32.8397   1
 -11   0  -7 3.00048 35.5903   1
   0 -11  -7 19.2081 35.2291   1
   0  11   9 15.9522 35.0793   1
   0 -11  -9-2.84846 36.1049   1
   0  11  11 31.9059 35.8687   1
   0 -11 -11 26.3998 35.7311   1
  11   0  11 16.7435 31.8965   1
 -11   0 -11 18.9848 34.1228   1
   1 -11   0 7195.29 199.672   1
  -1  11   0 5566.15 187.469   1
  11   1   2 5701.43 176.020   1
 -11  -1  -2 4735.57 166.477   1
   1 -11  -2 6199.66 179.180   1
  -1  11   2 4546.79 165.102   1
   1 -11   2 6168.39 178.131   1
  -1  11  -2 4805.14 166.316   1
   1 -11   4 6154.60 181.378   1
  -1  11  -4 5034.27 171.892   1
  -1  11  -6 3766.18 139.593   1
  11   1   6 4690.89 151.625   1
  -1  11   6 3400.81 141.421   1
   1 -11  -6 4615.35 150.701   1
 -11  -1  -6 3719.76 141.663   1
   1 -11   6 4543.87 148.367   1
  -1  11  -8 3212.76 126.482   1
  11   1   8 4225.06 137.105   1
 -11  -1  -8 3137.56 125.680   1
   1 -11   8 3675.02 132.569   1
  11   1  10 2724.91 106.867   1
   1 -11 -10 3363.62 114.989   1
  -1  11  10 2453.39 108.941   1
 -11  -1 -10 2161.51 100.564   1
  11   1  12 1863.95 82.4710   1
 -11  -1 -12 1459.30 77.2567   1
   2 -11  -1 263.726 47.1067   1
   2 -11   1 250.955 45.8921   1
  -2  11   1 190.339 43.3525   1
  -2  11  -1 217.120 42.1989   1
  11   2   3 278.337 44.3732   1
  -2  11  -3 160.276 41.5055   1
 -11  -2  -3 186.632 42.7850   1
   2 -11   3 148.438 45.2893   1
 -11  -2  -5 111.524 40.7358   1
   2 -11   5 139.784 42.4173   1
  11   2   5 183.879 43.3119   1
  -2  11   5 93.7505 40.0931   1
  -2  11  -5 138.467 39.3716   1
   2 -11  -5 139.455 41.9065   1
  -2  11   7 44.0601 36.3174   1
   2 -11  -7 75.3550 37.5383   1
  -2  11   9 30.1595 34.6902   1
  -2  11  -9 5.46719 28.4401   1
   2 -11  -9 11.3777 33.4844   1
  -2  11  11 12.6876 34.0281   1
   2 -11 -11 6.61941 33.0042   1
 -11  -2 -11 47.4985 36.5681   1
  11   2  11 26.8071 34.4505   1
   3 -11  -2 4350.41 139.275   1
  -3  11   2 2955.80 123.761   1
   3 -11  -4 4871.04 147.881   1
  -3  11   4 3142.09 130.160   1
  -3  11  -6 3004.77 122.155   1
  11   3   6 4833.11 145.076   1
  -3  11   6 2377.28 115.760   1
   3 -11  -6 3617.55 129.273   1
   3 -11   6 3856.97 132.011   1
 -11  -3  -6 3675.63 133.078   1
  -3  11  -8 2584.74 112.704   1
  11   3   8 4662.63 136.138   1
  -3  11   8 2033.26 107.611   1
   3 -11  -8 3279.28 121.344   1
   3 -11   8 3332.87 122.405   1
 -11  -3  -8 3510.50 124.000   1
  11   3  10 2715.21 104.760   1
 -11  -3 -10 2073.43 96.5322   1
   4 -11  -1 621.556 54.8680   1
   4 -11   1 662.914 57.5607   1
  -4  11   1 371.971 47.1830   1
  -4  11  -1 454.950 50.0473   1
  -4  11  -3 404.266 47.3354   1
   4 -11  -3 530.385 54.1987   1
  -4  11   3 328.891 48.7241   1
   4 -11   3 527.823 52.1220   1
  -4  11  -5 236.103 42.4705   1
  -4  11   5 184.159 44.1801   1
   4 -11  -5 349.643 48.0022   1
   4 -11   5 284.866 46.5153   1
 -11  -4  -7 197.289 42.3983   1
   4 -11   7 161.603 42.7177   1
  -4  11   7 112.672 39.1918   1
  11   4   7 271.645 42.9597   1
  -4  11  -7 93.0332 37.2983   1
   4 -11  -7 176.413 39.6765   1
  -4  11   9 65.4782 38.9657   1
   4 -11   9 58.0485 36.3281   1
 -11  -4  -9 62.5227 36.6504   1
  11   4   9 105.684 36.9915   1
  -4  11  -9 42.3403 32.2195   1
   4 -11  -9 63.7786 36.6536   1
  -4  11  11 19.1802 34.1767   1
 -11  -4 -11 15.9556 33.6240   1
  11   4  11 25.8442 31.0636   1
   4 -11 -11 44.9123 32.1802   1
   5 -11   0 6673.62 180.750   1
  -5  11   0 4349.60 162.116   1
  -5  11  -2 3933.94 146.309   1
   5 -11  -2 5504.94 161.914   1
   5 -11   2 5697.48 162.765   1
  -5  11   2 3656.91 145.255   1
  -5  11  -4 3484.86 132.922   1
   5 -11  -4 5125.66 150.126   1
  -5  11   4 3016.11 131.105   1
   5 -11   4 4948.42 147.678   1
  -5  11  -6 2193.32 97.8382   1
   5 -11  -6 2979.90 108.980   1
  -5  11   6 1754.94 92.9281   1
   5 -11   6 2991.19 109.708   1
  -5  11  -8 1580.85 81.9946   1
  -5  11   8 1386.03 81.6731   1
   5 -11  -8 2395.73 95.0191   1
   5 -11   8 2223.96 92.9940   1
 -11  -5 -10 1204.19 69.5046   1
  -5  11 -10 810.241 59.7443   1
  11   5  10 1413.91 71.4684   1
  -5  11  10 737.123 61.2429   1
   5 -11 -10 1282.17 69.8230   1
   5 -11  10 1243.63 70.3646   1
  -6  11  -1 347.182 45.3175   1
   6 -11  -1 483.090 51.7312   1
   6 -11   1 555.134 51.8673   1
  -6  11   1 316.761 46.7621   1
  -6  11  -3 307.123 43.3605   1
   6 -11  -3 452.783 46.8319   1
   6 -11   3 446.209 48.5635   1
  -6  11   3 285.411 44.6075   1
  -6  11  -5 219.518 39.1604   1
   6 -11  -5 346.585 43.7543   1
  -6  11   5 205.312 41.4301   1
   6 -11   5 320.052 45.1636   1
   6 -11   7 128.290 38.3440   1
  -6  11  -7 106.629 34.8427   1
  -6  11   9 48.2029 36.0243   1
   6 -11  -9 92.4701 35.2799   1
  -7  11   0 374.317 47.0890   1
   7 -11   0 691.638 54.7992   1
  -7  11  -2 337.718 43.6574   1
   7 -11  -2 589.843 51.1984   1
   7 -11   2 512.136 49.6223   1
  -7  11   2 360.462 45.3014   1
  -7  11  -4 545.223 49.5727   1
   7 -11  -4 808.086 57.5051   1
  -7  11   4 462.799 49.5537   1
   7 -11   4 789.430 57.5907   1
  -7  11  -6 483.922 50.7615   1
   7 -11  -6 791.269 58.5562   1
  -7  11   6 488.659 50.5904   1
   7 -11   6 642.812 58.0126   1
  -8  11   1 123.765 37.9327   1
  -8  11  -1 116.781 37.0531   1
   8 -11  -1 199.048 38.4952   1
   8 -11   1 205.136 38.9986   1
   8 -11  -3 189.034 38.5374   1
  -8  11   3 124.571 37.8045   1
  -8  11  -3 145.876 37.3055   1
   8 -11   3 161.472 38.4015   1
   8 -11  -5 154.339 37.3163   1
  -8  11   5 95.5973 38.4536   1
 -12   7  -3 128.089 38.5870   1
  12  -7   3 164.178 37.7180   1
  12  -6   4 1082.08 65.8746   1
 -12   6  -4 766.226 59.5817   1
 -12   5  -3 111.970 40.8158   1
  12  -5   3 215.536 42.0849   1
 -12   5  -5 107.847 38.9157   1
  12  -5   5 130.708 37.4641   1
  -5 -12  -5 223.193 44.1879   1
   5  12   5 193.294 38.7254   1
 -12   5  -7 55.5129 35.4017   1
  -5 -12  -7 120.402 37.9284   1
  12  -5   7 93.4177 36.0108   1
   5  12   7 91.3612 33.1588   1
  12  -4   2 2824.79 125.044   1
  -4 -12  -2 4578.49 147.656   1
   4  12   2 4113.98 140.118   1
  12  -4   4 2465.68 102.460   1
 -12   4  -4 2120.50 97.9348   1
  12  -4   6 1656.45 85.4546   1
 -12   4  -6 1402.28 81.6614   1
   4  12   6 2346.38 95.2147   1
  -4 -12  -6 2773.53 102.061   1
  12  -4   8 1415.20 75.0531   1
  -4 -12  -8 1984.30 85.1382   1
 -12   4  -8 1136.12 71.4047   1
   4  12   8 1612.46 78.4295   1
   3  12   1 147.780 39.6755   1
   3  12  -1 130.239 38.4164   1
  -3 -12  -1 193.979 43.6818   1
   3  12   3 140.481 38.3093   1
  -3 -12  -3 152.519 42.4206   1
 -12   3  -3 96.4084 39.4314   1
  12  -3   3 140.831 39.4395   1
   3  12   5 112.284 36.5897   1
 -12   3  -5 46.4832 37.3930   1
  12  -3   5 98.2524 36.9419   1
  -3 -12  -5 141.451 40.4750   1
  -3 -12  -7 62.5324 37.7341   1
  12  -3   7 14.3783 34.0304   1
 -12   3  -7 28.7744 35.6266   1
   3  12   7 25.9038 32.6835   1
  12  -3   9 18.6183 31.3354   1
 -12   3  -9 10.9581 31.9812   1
   2  12   2 3518.27 135.705   1
  -2 -12  -2 4649.96 147.940   1
   2  12  -2 3580.33 137.193   1
  -2 -12   2 4527.01 147.220   1
  12  -2   4 4429.23 141.992   1
 -12   2  -4 3149.41 129.072   1
   2  12   4 3691.53 134.075   1
  12  -2   6 3179.16 118.956   1
  -2 -12  -6 3999.09 127.028   1
 -12   2  -6 2288.82 109.062   1
   2  12   6 3021.55 115.740   1
  12  -2   8 2565.94 100.517   1
 -12   2  -8 1923.25 92.7405   1
   1  12   1 48.9160 36.2126   1
  -1 -12  -1 66.2678 39.7240   1
  -1 -12   3 29.8996 36.1522   1
   1  12   3 33.5809 35.6014   1
   1  12  -3 39.0154 34.5851   1
  -1 -12  -3 49.5177 37.7167   1
  12  -1   5 25.4993 34.5535   1
 -12   1  -5 4.86150 34.7267   1
   1  12   7 11.8521 34.3239   1
  -1 -12  -7 17.5005 39.2511   1
   1  12   9 17.4025 33.7393   1
  12  -1   9 11.8452 32.6025   1
  -1 -12  -9 25.5622 35.2206   1
 -12   1  -9 11.8533 34.4304   1
   0 -12   0 3125.25 115.218   1
   0  12   0 2363.20 105.382   1
   0 -12  -2 2587.60 109.853   1
  12   0   6 1825.70 88.9877   1
 -12   0  -6 1536.49 84.1169   1
   0  12   6 1616.84 92.2248   1
   0 -12  -6 2193.77 98.2292   1
 -12   0  -8 1615.40 82.9054   1
  12   0  10 1499.85 76.0210   1
 -12   0 -10 1274.61 72.8006   1
   1 -12  -1 47.0879 39.6740   1
   1 -12   1 81.3188 40.4536   1
  -1  12   1 60.0064 36.3331   1
  -1  12  -1 62.8755 36.2922   1
   1 -12   3 40.0748 39.1852   1
  -1  12   3 16.3081 34.9803   1
  -1  12  -3 25.1001 34.9793   1
   1 -12  -3 54.1807 39.0797   1
   1 -12   5 4.82403 37.6227   1
  -1  12   5-0.57405 36.0997   1
  -1  12  -5 7.83104 33.4538   1
   1 -12  -5 0.57416 37.9935   1
  -1  12   7 3.36998 32.1828   1
  12   1   7 12.5621 34.5745   1
 -12  -1  -7 4.19176 36.6777   1
   1 -12  -7 22.4672 33.2070   1
  -1  12   9 13.5960 34.4490   1
   1 -12  -9 16.8576 34.2176   1
   2 -12   0 4600.34 143.768   1
  -2  12   0 3238.53 129.499   1
   2 -12  -2 3872.12 131.120   1
  -2  12   2 2619.20 115.884   1
   2 -12   2 3990.94 131.163   1
  -2  12  -2 2995.40 119.253   1
   2 -12   4 3996.25 133.736   1
  -2  12  -4 3089.32 122.757   1
  -2  12  -6 2284.66 99.5779   1
  -2  12   6 1764.68 92.6561   1
   2 -12  -6 2914.37 108.918   1
   2 -12   6 2895.24 109.095   1
  12   2   8 3210.50 109.147   1
  -2  12   8 1507.33 86.4232   1
   2 -12  -8 2345.24 98.1339   1
  12   2  10 1969.99 85.3245   1
 -12  -2 -10 1429.31 78.6411   1
   3 -12  -1 159.514 42.5976   1
   3 -12   1 146.477 41.7640   1
  -3  12   1 119.075 38.4893   1
   3 -12  -3 107.197 41.5381   1
   3 -12   3 120.139 41.0303   1
  -3  12   3 56.7473 37.6289   1
  -3  12  -3 117.741 37.4485   1
   3 -12   5 82.8733 39.5106   1
  -3  12   5 35.0760 34.6171   1
  -3  12  -5 76.4093 35.1580   1
   3 -12  -5 63.9253 35.5821   1
   3 -12   7 62.2910 37.8092   1
  -3  12   7 38.8241 34.7550   1
  -3  12  -7 42.4672 33.8138   1
   3 -12  -7 34.9349 34.4538   1
   4 -12   0 3130.04 115.147   1
  -4  12   0 2238.98 103.111   1
   4 -12  -2 2803.49 105.944   1
  -4  12   2 1873.07 93.3117   1
  -4  12  -2 2103.92 94.6322   1
  -4  12  -4 1895.77 88.5738   1
   4 -12  -4 2421.90 97.5231   1
  -4  12   4 1482.70 83.6264   1
   4 -12   4 2552.23 99.2823   1
  -4  12  -6 1285.83 72.8276   1
  -4  12   6 990.993 69.9580   1
   4 -12  -6 1619.90 80.7653   1
   4 -12   6 1835.26 83.4569   1
  -4  12  -8 1018.47 64.2315   1
  -4  12   8 786.460 61.7189   1
   4 -12  -8 1372.01 71.6561   1
   4 -12   8 1385.66 72.8224   1
  -5  12   1 163.394 38.0095   1
  -5  12  -1 166.990 39.0925   1
   5 -12  -1 256.603 41.2101   1
   5 -12   1 227.748 44.2767   1
  -5  12   3 119.452 38.2258   1
  -5  12  -3 116.625 35.3642   1
   5 -12  -3 185.850 40.6968   1
   5 -12   3 207.518 41.6705   1
   5 -12  -5 150.584 36.2820   1
   5 -12   5 140.741 41.2115   1
  -5  12   5 82.2054 36.0298   1
  -5  12  -5 111.766 36.4427   1
   5 -12   7 50.4323 36.5693   1
  -5  12   7 48.1655 34.2076   1
  -5  12  -7 60.2657 33.7961   1
   5 -12  -7 69.2434 33.4675   1
   6 -12   0 1041.91 61.9683   1
  -6  12   0 614.170 52.3410   1
  -6  12  -2 603.505 51.2559   1
   6 -12  -2 908.743 59.9123   1
   6 -12   2 986.404 60.4882   1
  -6  12   2 545.014 52.1678   1
  -6  12  -4 666.555 53.0698   1
   6 -12  -4 1043.47 62.7654   1
  -6  12   4 570.356 53.5126   1
   6 -12   4 970.497 62.2577   1
  -4 -13  -5 116.206 38.9708   1
   4  13   5 77.5936 33.9928   1
  -3 -13  -2 2218.74 98.2377   1
   3  13   2 1784.41 91.3431   1
  -3 -13  -6 1569.60 79.2737   1
   2  13   1 48.9245 34.1058   1
  -2 -13  -1 43.0635 37.0070   1
   2  13   3 12.0821 32.6649   1
  -2 -13  -3 71.3955 38.2828   1
   2  13   5 49.0836 33.3266   1
  -2 -13  -5 56.3669 36.2714   1
   1  13   2 1452.51 81.4403   1
  -1 -13  -2 2139.54 93.2058   1
   1  13  -2 1674.21 83.9601   1
   1  13   4 1635.66 84.3914   1
  -1 -13  -4 2176.25 92.4772   1
  -1 -13  -6 1749.56 85.3102   1
   1  13   6 1415.52 78.2626   1
   0  13   1 9.82514 34.1471   1
   0  13  -1-1.17320 32.7871   1
   0 -13  -1-1.15667 36.5926   1
   0 -13   1 34.6332 37.4878   1
   0  13   3 7.37303 30.9515   1
   0 -13  -3 9.07901 34.0939   1
   0  13   5 4.42419 33.9716   1
   0 -13  -5 5.53210 36.6444   1
   1 -13   0 2120.98 91.3455   1
  -1  13   0 1448.40 78.9872   1
  -1  13   2 1263.43 74.2118   1
   1 -13  -2 1916.43 86.9193   1
   1 -13   2 1868.51 86.2511   1
  -1  13  -2 1387.54 76.7601   1
  -1  13   4 1232.23 72.5359   1
   1 -13   4 1882.82 86.7919   1
  -1  13  -4 1532.87 78.6995   1
  -1  13   6 877.813 61.1088   1
   1 -13  -6 1473.47 73.5830   1
   2 -13  -1 25.9472 35.7925   1
   2 -13   1 30.7842 37.0366   1
  -2  13   1 19.1707 32.2904   1
  -2  13  -1 33.0459 34.0277   1
   2 -13   3 25.8211 34.7786   1
  -2  13  -3 42.4445 32.8956   1
   2 -13  -3 38.3414 38.3049   1
   2 -13   5 14.9706 36.0088   1
  -2  13   5 30.4446 33.7486   1
  -2  13  -5 24.7375 32.0659   1
   2 -13  -5 6.52456 34.2708   1
   3 -13  -2 1381.83 74.2348   1
  -3  13   2 906.502 63.8878   1
  -3  13   4 755.794 61.3982   1
   3 -13  -4 1293.02 72.4789   1
   3 -13   4 1419.22 73.8308   1
  -3  13  -4 1066.95 64.9064   1
   3 -13   6 1078.60 65.5004   1
  -3  13  -6 838.589 58.0825   1
   4 -13  -1 106.674 34.4947   1
   4 -13   1 100.708 38.0549   1
  -4  13   1 71.2879 32.0924   1
   4 -13  -3 69.9163 32.6153   1
   4 -13   3 65.1503 35.5133   1
  -4  13   3 40.8729 29.7881   1
  -4  13  -3 62.9328 32.1119   1
   1  14   1 17.2912 29.6173   1
  -1 -14  -1 15.6286 33.4559   1
   0  14   0 847.966 59.0238   1
   0 -14   0 1349.05 71.4798   1
  -1  14  -1 1.10222 29.8288   1
   1 -14   1-1.10288 33.6353   1
   0   0   0    0.00    0.00   0

TITL Diffuse_300K_Full_Sphere_Scan in I4/m
REM I4/m (#87 in standard setting)
CELL 0.67511   8.882701   8.882701  12.618831  90.0000  90.0000  90.0000
ZERR    4.00   0.000306   0.000306   0.000914   0.0000   0.0000   0.0000
LATT  2
SYMM -x,-y, z
SYMM -y, x, z
SYMM  y,-x, z
SFAC C H N I Pb
UNIT 4.00 24.00 4.00 12.00 4.00
TREF
HKLF 4
END
;
_shelx_hkl_checksum   72175

